version 2
run Default-0-20200416-12:16:23-21480
attr configname Default
attr datetime 20200416-12:16:23
attr experiment Default
attr inifile omnetpp.ini
attr iterationvars ""
attr iterationvarsf ""
attr measurement ""
attr network RSUExampleScenario
attr processid 21480
attr repetition 0
attr replication #0
attr resultdir results
attr runnumber 0
attr seedset 0
param *.playgroundSizeX 2500m
param *.playgroundSizeY 2500m
param *.playgroundSizeZ 50m
param *.annotations.draw true
param *.obstacles.obstacles "xmldoc(\"config.xml\", \"//AnalogueModel[@type='SimpleObstacleShadowing']/obstacles\")"
param *.manager.updateInterval 1s
param *.manager.host "\"localhost\""
param *.manager.port 9999
param *.manager.autoShutdown true
param *.manager.launchConfig "xmldoc(\"erlangen.launchd.xml\")"
param *.rsu[0].mobility.x 2000
param *.rsu[0].mobility.y 2000
param *.rsu[0].mobility.z 3
param *.rsu[*].applType "\"TraCIDemoRSU11p\""
param *.rsu[*].appl.headerLength "80 bit"
param *.rsu[*].appl.sendBeacons true
param *.rsu[*].appl.sendWSA true
param *.rsu[*].appl.dataOnSch false
param *.rsu[*].appl.beaconInterval 1s
param *.rsu[*].appl.beaconUserPriority 7
param *.rsu[*].appl.dataUserPriority 5
param *.rsu[*].nic.phy80211p.antennaOffsetZ "0 m"
param *.connectionManager.sendDirect true
param *.connectionManager.maxInterfDist 2600m
param *.connectionManager.drawMaxIntfDist false
param *.**.nic.mac1609_4.useServiceChannel false
param *.**.nic.mac1609_4.txPower 20mW
param *.**.nic.mac1609_4.bitrate 6Mbps
param *.**.nic.phy80211p.minPowerLevel -110dBm
param *.**.nic.phy80211p.useNoiseFloor true
param *.**.nic.phy80211p.noiseFloor -98dBm
param *.**.nic.phy80211p.decider "xmldoc(\"config.xml\")"
param *.**.nic.phy80211p.analogueModels "xmldoc(\"config.xml\")"
param *.**.nic.phy80211p.usePropagationDelay true
param *.**.nic.phy80211p.antenna "xmldoc(\"antenna.xml\", \"/root/Antenna[@id='monopole']\")"
param *.node[*].nic.phy80211p.antennaOffsetY "0 m"
param *.node[*].nic.phy80211p.antennaOffsetZ "1.895 m"
param *.node[*].dsp.camq.sendInterval 10s
param *.node[*].dsp.denq.sendInterval 2s
param *.node[*].applType "\"TraCIDemo11p\""
param *.node[*].appl.headerLength "80 bit"
param *.node[*].appl.sendBeacons true
param *.node[*].appl.sendWSA true
param *.node[*].appl.dataOnSch false
param *.node[*].appl.beaconInterval 1s
param *.node[*].veinsmobility.x 0
param *.node[*].veinsmobility.y 0
param *.node[*].veinsmobility.z 0
param *.node[*].veinsmobility.setHostSpeed false
param *.node[*0].veinsmobility.accidentCount 1
param *.node[*0].veinsmobility.accidentStart 73s
param *.node[*0].veinsmobility.accidentDuration 50s

vector 0 RSUExampleScenario.node[0].veinsmobility posx ETV
vector 1 RSUExampleScenario.node[0].veinsmobility posy ETV
vector 2 RSUExampleScenario.node[0].veinsmobility speed ETV
vector 3 RSUExampleScenario.node[0].veinsmobility acceleration ETV
vector 4 RSUExampleScenario.node[0].veinsmobility co2emission ETV
vector 5 RSUExampleScenario.node[1].veinsmobility posx ETV
vector 6 RSUExampleScenario.node[1].veinsmobility posy ETV
vector 7 RSUExampleScenario.node[1].veinsmobility speed ETV
vector 8 RSUExampleScenario.node[1].veinsmobility acceleration ETV
vector 9 RSUExampleScenario.node[1].veinsmobility co2emission ETV
vector 10 RSUExampleScenario.node[2].veinsmobility posx ETV
vector 11 RSUExampleScenario.node[2].veinsmobility posy ETV
vector 12 RSUExampleScenario.node[2].veinsmobility speed ETV
vector 13 RSUExampleScenario.node[2].veinsmobility acceleration ETV
vector 14 RSUExampleScenario.node[2].veinsmobility co2emission ETV
vector 15 RSUExampleScenario.node[3].veinsmobility posx ETV
vector 16 RSUExampleScenario.node[3].veinsmobility posy ETV
vector 17 RSUExampleScenario.node[3].veinsmobility speed ETV
vector 18 RSUExampleScenario.node[3].veinsmobility acceleration ETV
vector 19 RSUExampleScenario.node[3].veinsmobility co2emission ETV
vector 20 RSUExampleScenario.node[4].veinsmobility posx ETV
vector 21 RSUExampleScenario.node[4].veinsmobility posy ETV
vector 22 RSUExampleScenario.node[4].veinsmobility speed ETV
vector 23 RSUExampleScenario.node[4].veinsmobility acceleration ETV
vector 24 RSUExampleScenario.node[4].veinsmobility co2emission ETV
vector 25 RSUExampleScenario.node[5].veinsmobility posx ETV
vector 26 RSUExampleScenario.node[5].veinsmobility posy ETV
vector 27 RSUExampleScenario.node[5].veinsmobility speed ETV
vector 28 RSUExampleScenario.node[5].veinsmobility acceleration ETV
vector 29 RSUExampleScenario.node[5].veinsmobility co2emission ETV
vector 30 RSUExampleScenario.node[6].veinsmobility posx ETV
vector 31 RSUExampleScenario.node[6].veinsmobility posy ETV
vector 32 RSUExampleScenario.node[6].veinsmobility speed ETV
vector 33 RSUExampleScenario.node[6].veinsmobility acceleration ETV
vector 34 RSUExampleScenario.node[6].veinsmobility co2emission ETV
vector 35 RSUExampleScenario.node[7].veinsmobility posx ETV
vector 36 RSUExampleScenario.node[7].veinsmobility posy ETV
vector 37 RSUExampleScenario.node[7].veinsmobility speed ETV
vector 38 RSUExampleScenario.node[7].veinsmobility acceleration ETV
vector 39 RSUExampleScenario.node[7].veinsmobility co2emission ETV
vector 40 RSUExampleScenario.node[8].veinsmobility posx ETV
vector 41 RSUExampleScenario.node[8].veinsmobility posy ETV
vector 42 RSUExampleScenario.node[8].veinsmobility speed ETV
vector 43 RSUExampleScenario.node[8].veinsmobility acceleration ETV
vector 44 RSUExampleScenario.node[8].veinsmobility co2emission ETV
vector 45 RSUExampleScenario.node[9].veinsmobility posx ETV
vector 46 RSUExampleScenario.node[9].veinsmobility posy ETV
vector 47 RSUExampleScenario.node[9].veinsmobility speed ETV
vector 48 RSUExampleScenario.node[9].veinsmobility acceleration ETV
vector 49 RSUExampleScenario.node[9].veinsmobility co2emission ETV
vector 50 RSUExampleScenario.node[10].veinsmobility posx ETV
vector 51 RSUExampleScenario.node[10].veinsmobility posy ETV
vector 52 RSUExampleScenario.node[10].veinsmobility speed ETV
vector 53 RSUExampleScenario.node[10].veinsmobility acceleration ETV
vector 54 RSUExampleScenario.node[10].veinsmobility co2emission ETV
vector 55 RSUExampleScenario.node[11].veinsmobility posx ETV
vector 56 RSUExampleScenario.node[11].veinsmobility posy ETV
vector 57 RSUExampleScenario.node[11].veinsmobility speed ETV
vector 58 RSUExampleScenario.node[11].veinsmobility acceleration ETV
vector 59 RSUExampleScenario.node[11].veinsmobility co2emission ETV
vector 60 RSUExampleScenario.node[12].veinsmobility posx ETV
vector 61 RSUExampleScenario.node[12].veinsmobility posy ETV
vector 62 RSUExampleScenario.node[12].veinsmobility speed ETV
vector 63 RSUExampleScenario.node[12].veinsmobility acceleration ETV
vector 64 RSUExampleScenario.node[12].veinsmobility co2emission ETV
vector 65 RSUExampleScenario.node[13].veinsmobility posx ETV
vector 66 RSUExampleScenario.node[13].veinsmobility posy ETV
vector 67 RSUExampleScenario.node[13].veinsmobility speed ETV
vector 68 RSUExampleScenario.node[13].veinsmobility acceleration ETV
vector 69 RSUExampleScenario.node[13].veinsmobility co2emission ETV
vector 70 RSUExampleScenario.node[14].veinsmobility posx ETV
vector 71 RSUExampleScenario.node[14].veinsmobility posy ETV
vector 72 RSUExampleScenario.node[14].veinsmobility speed ETV
vector 73 RSUExampleScenario.node[14].veinsmobility acceleration ETV
vector 74 RSUExampleScenario.node[14].veinsmobility co2emission ETV
vector 75 RSUExampleScenario.node[15].veinsmobility posx ETV
vector 76 RSUExampleScenario.node[15].veinsmobility posy ETV
vector 77 RSUExampleScenario.node[15].veinsmobility speed ETV
vector 78 RSUExampleScenario.node[15].veinsmobility acceleration ETV
vector 79 RSUExampleScenario.node[15].veinsmobility co2emission ETV
vector 80 RSUExampleScenario.node[16].veinsmobility posx ETV
vector 81 RSUExampleScenario.node[16].veinsmobility posy ETV
vector 82 RSUExampleScenario.node[16].veinsmobility speed ETV
vector 83 RSUExampleScenario.node[16].veinsmobility acceleration ETV
vector 84 RSUExampleScenario.node[16].veinsmobility co2emission ETV
vector 85 RSUExampleScenario.node[17].veinsmobility posx ETV
vector 86 RSUExampleScenario.node[17].veinsmobility posy ETV
vector 87 RSUExampleScenario.node[17].veinsmobility speed ETV
vector 88 RSUExampleScenario.node[17].veinsmobility acceleration ETV
vector 89 RSUExampleScenario.node[17].veinsmobility co2emission ETV
vector 90 RSUExampleScenario.node[18].veinsmobility posx ETV
vector 91 RSUExampleScenario.node[18].veinsmobility posy ETV
vector 92 RSUExampleScenario.node[18].veinsmobility speed ETV
vector 93 RSUExampleScenario.node[18].veinsmobility acceleration ETV
vector 94 RSUExampleScenario.node[18].veinsmobility co2emission ETV
vector 95 RSUExampleScenario.node[19].veinsmobility posx ETV
vector 96 RSUExampleScenario.node[19].veinsmobility posy ETV
vector 97 RSUExampleScenario.node[19].veinsmobility speed ETV
vector 98 RSUExampleScenario.node[19].veinsmobility acceleration ETV
vector 99 RSUExampleScenario.node[19].veinsmobility co2emission ETV
vector 100 RSUExampleScenario.node[20].veinsmobility posx ETV
vector 101 RSUExampleScenario.node[20].veinsmobility posy ETV
vector 102 RSUExampleScenario.node[20].veinsmobility speed ETV
vector 103 RSUExampleScenario.node[20].veinsmobility acceleration ETV
vector 104 RSUExampleScenario.node[20].veinsmobility co2emission ETV
vector 105 RSUExampleScenario.node[21].veinsmobility posx ETV
vector 106 RSUExampleScenario.node[21].veinsmobility posy ETV
vector 107 RSUExampleScenario.node[21].veinsmobility speed ETV
vector 108 RSUExampleScenario.node[21].veinsmobility acceleration ETV
vector 109 RSUExampleScenario.node[21].veinsmobility co2emission ETV
vector 110 RSUExampleScenario.node[22].veinsmobility posx ETV
vector 111 RSUExampleScenario.node[22].veinsmobility posy ETV
vector 112 RSUExampleScenario.node[22].veinsmobility speed ETV
vector 113 RSUExampleScenario.node[22].veinsmobility acceleration ETV
vector 114 RSUExampleScenario.node[22].veinsmobility co2emission ETV
vector 115 RSUExampleScenario.node[23].veinsmobility posx ETV
vector 116 RSUExampleScenario.node[23].veinsmobility posy ETV
vector 117 RSUExampleScenario.node[23].veinsmobility speed ETV
vector 118 RSUExampleScenario.node[23].veinsmobility acceleration ETV
vector 119 RSUExampleScenario.node[23].veinsmobility co2emission ETV
vector 120 RSUExampleScenario.node[24].veinsmobility posx ETV
vector 121 RSUExampleScenario.node[24].veinsmobility posy ETV
vector 122 RSUExampleScenario.node[24].veinsmobility speed ETV
vector 123 RSUExampleScenario.node[24].veinsmobility acceleration ETV
vector 124 RSUExampleScenario.node[24].veinsmobility co2emission ETV
vector 125 RSUExampleScenario.node[25].veinsmobility posx ETV
vector 126 RSUExampleScenario.node[25].veinsmobility posy ETV
vector 127 RSUExampleScenario.node[25].veinsmobility speed ETV
vector 128 RSUExampleScenario.node[25].veinsmobility acceleration ETV
vector 129 RSUExampleScenario.node[25].veinsmobility co2emission ETV
vector 130 RSUExampleScenario.node[26].veinsmobility posx ETV
vector 131 RSUExampleScenario.node[26].veinsmobility posy ETV
vector 132 RSUExampleScenario.node[26].veinsmobility speed ETV
vector 133 RSUExampleScenario.node[26].veinsmobility acceleration ETV
vector 134 RSUExampleScenario.node[26].veinsmobility co2emission ETV
vector 135 RSUExampleScenario.node[27].veinsmobility posx ETV
vector 136 RSUExampleScenario.node[27].veinsmobility posy ETV
vector 137 RSUExampleScenario.node[27].veinsmobility speed ETV
vector 138 RSUExampleScenario.node[27].veinsmobility acceleration ETV
vector 139 RSUExampleScenario.node[27].veinsmobility co2emission ETV
vector 140 RSUExampleScenario.node[28].veinsmobility posx ETV
vector 141 RSUExampleScenario.node[28].veinsmobility posy ETV
vector 142 RSUExampleScenario.node[28].veinsmobility speed ETV
vector 143 RSUExampleScenario.node[28].veinsmobility acceleration ETV
vector 144 RSUExampleScenario.node[28].veinsmobility co2emission ETV
vector 145 RSUExampleScenario.node[29].veinsmobility posx ETV
vector 146 RSUExampleScenario.node[29].veinsmobility posy ETV
vector 147 RSUExampleScenario.node[29].veinsmobility speed ETV
vector 148 RSUExampleScenario.node[29].veinsmobility acceleration ETV
vector 149 RSUExampleScenario.node[29].veinsmobility co2emission ETV
vector 150 RSUExampleScenario.node[30].veinsmobility posx ETV
vector 151 RSUExampleScenario.node[30].veinsmobility posy ETV
vector 152 RSUExampleScenario.node[30].veinsmobility speed ETV
vector 153 RSUExampleScenario.node[30].veinsmobility acceleration ETV
vector 154 RSUExampleScenario.node[30].veinsmobility co2emission ETV
vector 155 RSUExampleScenario.node[31].veinsmobility posx ETV
vector 156 RSUExampleScenario.node[31].veinsmobility posy ETV
vector 157 RSUExampleScenario.node[31].veinsmobility speed ETV
vector 158 RSUExampleScenario.node[31].veinsmobility acceleration ETV
vector 159 RSUExampleScenario.node[31].veinsmobility co2emission ETV
vector 160 RSUExampleScenario.node[32].veinsmobility posx ETV
vector 161 RSUExampleScenario.node[32].veinsmobility posy ETV
vector 162 RSUExampleScenario.node[32].veinsmobility speed ETV
vector 163 RSUExampleScenario.node[32].veinsmobility acceleration ETV
vector 164 RSUExampleScenario.node[32].veinsmobility co2emission ETV
vector 165 RSUExampleScenario.node[33].veinsmobility posx ETV
vector 166 RSUExampleScenario.node[33].veinsmobility posy ETV
vector 167 RSUExampleScenario.node[33].veinsmobility speed ETV
vector 168 RSUExampleScenario.node[33].veinsmobility acceleration ETV
vector 169 RSUExampleScenario.node[33].veinsmobility co2emission ETV
vector 170 RSUExampleScenario.node[34].veinsmobility posx ETV
vector 171 RSUExampleScenario.node[34].veinsmobility posy ETV
vector 172 RSUExampleScenario.node[34].veinsmobility speed ETV
vector 173 RSUExampleScenario.node[34].veinsmobility acceleration ETV
vector 174 RSUExampleScenario.node[34].veinsmobility co2emission ETV
vector 175 RSUExampleScenario.node[35].veinsmobility posx ETV
vector 176 RSUExampleScenario.node[35].veinsmobility posy ETV
vector 177 RSUExampleScenario.node[35].veinsmobility speed ETV
vector 178 RSUExampleScenario.node[35].veinsmobility acceleration ETV
vector 179 RSUExampleScenario.node[35].veinsmobility co2emission ETV
vector 180 RSUExampleScenario.node[36].veinsmobility posx ETV
vector 181 RSUExampleScenario.node[36].veinsmobility posy ETV
vector 182 RSUExampleScenario.node[36].veinsmobility speed ETV
vector 183 RSUExampleScenario.node[36].veinsmobility acceleration ETV
vector 184 RSUExampleScenario.node[36].veinsmobility co2emission ETV
vector 185 RSUExampleScenario.node[37].veinsmobility posx ETV
vector 186 RSUExampleScenario.node[37].veinsmobility posy ETV
vector 187 RSUExampleScenario.node[37].veinsmobility speed ETV
vector 188 RSUExampleScenario.node[37].veinsmobility acceleration ETV
vector 189 RSUExampleScenario.node[37].veinsmobility co2emission ETV
vector 190 RSUExampleScenario.node[38].veinsmobility posx ETV
vector 191 RSUExampleScenario.node[38].veinsmobility posy ETV
vector 192 RSUExampleScenario.node[38].veinsmobility speed ETV
vector 193 RSUExampleScenario.node[38].veinsmobility acceleration ETV
vector 194 RSUExampleScenario.node[38].veinsmobility co2emission ETV
vector 195 RSUExampleScenario.node[39].veinsmobility posx ETV
vector 196 RSUExampleScenario.node[39].veinsmobility posy ETV
vector 197 RSUExampleScenario.node[39].veinsmobility speed ETV
vector 198 RSUExampleScenario.node[39].veinsmobility acceleration ETV
vector 199 RSUExampleScenario.node[39].veinsmobility co2emission ETV
vector 200 RSUExampleScenario.node[40].veinsmobility posx ETV
vector 201 RSUExampleScenario.node[40].veinsmobility posy ETV
vector 202 RSUExampleScenario.node[40].veinsmobility speed ETV
vector 203 RSUExampleScenario.node[40].veinsmobility acceleration ETV
vector 204 RSUExampleScenario.node[40].veinsmobility co2emission ETV
vector 205 RSUExampleScenario.node[41].veinsmobility posx ETV
vector 206 RSUExampleScenario.node[41].veinsmobility posy ETV
vector 207 RSUExampleScenario.node[41].veinsmobility speed ETV
vector 208 RSUExampleScenario.node[41].veinsmobility acceleration ETV
vector 209 RSUExampleScenario.node[41].veinsmobility co2emission ETV
vector 210 RSUExampleScenario.node[42].veinsmobility posx ETV
vector 211 RSUExampleScenario.node[42].veinsmobility posy ETV
vector 212 RSUExampleScenario.node[42].veinsmobility speed ETV
vector 213 RSUExampleScenario.node[42].veinsmobility acceleration ETV
vector 214 RSUExampleScenario.node[42].veinsmobility co2emission ETV
vector 215 RSUExampleScenario.node[43].veinsmobility posx ETV
vector 216 RSUExampleScenario.node[43].veinsmobility posy ETV
vector 217 RSUExampleScenario.node[43].veinsmobility speed ETV
vector 218 RSUExampleScenario.node[43].veinsmobility acceleration ETV
vector 219 RSUExampleScenario.node[43].veinsmobility co2emission ETV
vector 220 RSUExampleScenario.node[44].veinsmobility posx ETV
vector 221 RSUExampleScenario.node[44].veinsmobility posy ETV
vector 222 RSUExampleScenario.node[44].veinsmobility speed ETV
vector 223 RSUExampleScenario.node[44].veinsmobility acceleration ETV
vector 224 RSUExampleScenario.node[44].veinsmobility co2emission ETV
vector 225 RSUExampleScenario.node[45].veinsmobility posx ETV
vector 226 RSUExampleScenario.node[45].veinsmobility posy ETV
vector 227 RSUExampleScenario.node[45].veinsmobility speed ETV
vector 228 RSUExampleScenario.node[45].veinsmobility acceleration ETV
vector 229 RSUExampleScenario.node[45].veinsmobility co2emission ETV
vector 230 RSUExampleScenario.node[46].veinsmobility posx ETV
vector 231 RSUExampleScenario.node[46].veinsmobility posy ETV
vector 232 RSUExampleScenario.node[46].veinsmobility speed ETV
vector 233 RSUExampleScenario.node[46].veinsmobility acceleration ETV
vector 234 RSUExampleScenario.node[46].veinsmobility co2emission ETV
vector 235 RSUExampleScenario.node[47].veinsmobility posx ETV
vector 236 RSUExampleScenario.node[47].veinsmobility posy ETV
vector 237 RSUExampleScenario.node[47].veinsmobility speed ETV
vector 238 RSUExampleScenario.node[47].veinsmobility acceleration ETV
vector 239 RSUExampleScenario.node[47].veinsmobility co2emission ETV
vector 240 RSUExampleScenario.node[48].veinsmobility posx ETV
vector 241 RSUExampleScenario.node[48].veinsmobility posy ETV
vector 242 RSUExampleScenario.node[48].veinsmobility speed ETV
vector 243 RSUExampleScenario.node[48].veinsmobility acceleration ETV
vector 244 RSUExampleScenario.node[48].veinsmobility co2emission ETV
vector 245 RSUExampleScenario.node[49].veinsmobility posx ETV
vector 246 RSUExampleScenario.node[49].veinsmobility posy ETV
vector 247 RSUExampleScenario.node[49].veinsmobility speed ETV
vector 248 RSUExampleScenario.node[49].veinsmobility acceleration ETV
vector 249 RSUExampleScenario.node[49].veinsmobility co2emission ETV
vector 250 RSUExampleScenario.node[50].veinsmobility posx ETV
vector 251 RSUExampleScenario.node[50].veinsmobility posy ETV
vector 252 RSUExampleScenario.node[50].veinsmobility speed ETV
vector 253 RSUExampleScenario.node[50].veinsmobility acceleration ETV
vector 254 RSUExampleScenario.node[50].veinsmobility co2emission ETV
vector 255 RSUExampleScenario.node[51].veinsmobility posx ETV
vector 256 RSUExampleScenario.node[51].veinsmobility posy ETV
vector 257 RSUExampleScenario.node[51].veinsmobility speed ETV
vector 258 RSUExampleScenario.node[51].veinsmobility acceleration ETV
vector 259 RSUExampleScenario.node[51].veinsmobility co2emission ETV
vector 260 RSUExampleScenario.node[52].veinsmobility posx ETV
vector 261 RSUExampleScenario.node[52].veinsmobility posy ETV
vector 262 RSUExampleScenario.node[52].veinsmobility speed ETV
vector 263 RSUExampleScenario.node[52].veinsmobility acceleration ETV
vector 264 RSUExampleScenario.node[52].veinsmobility co2emission ETV
vector 265 RSUExampleScenario.node[53].veinsmobility posx ETV
vector 266 RSUExampleScenario.node[53].veinsmobility posy ETV
vector 267 RSUExampleScenario.node[53].veinsmobility speed ETV
vector 268 RSUExampleScenario.node[53].veinsmobility acceleration ETV
vector 269 RSUExampleScenario.node[53].veinsmobility co2emission ETV
vector 270 RSUExampleScenario.node[54].veinsmobility posx ETV
vector 271 RSUExampleScenario.node[54].veinsmobility posy ETV
vector 272 RSUExampleScenario.node[54].veinsmobility speed ETV
vector 273 RSUExampleScenario.node[54].veinsmobility acceleration ETV
vector 274 RSUExampleScenario.node[54].veinsmobility co2emission ETV
vector 275 RSUExampleScenario.node[55].veinsmobility posx ETV
vector 276 RSUExampleScenario.node[55].veinsmobility posy ETV
vector 277 RSUExampleScenario.node[55].veinsmobility speed ETV
vector 278 RSUExampleScenario.node[55].veinsmobility acceleration ETV
vector 279 RSUExampleScenario.node[55].veinsmobility co2emission ETV
vector 280 RSUExampleScenario.node[56].veinsmobility posx ETV
vector 281 RSUExampleScenario.node[56].veinsmobility posy ETV
vector 282 RSUExampleScenario.node[56].veinsmobility speed ETV
vector 283 RSUExampleScenario.node[56].veinsmobility acceleration ETV
vector 284 RSUExampleScenario.node[56].veinsmobility co2emission ETV
vector 285 RSUExampleScenario.node[57].veinsmobility posx ETV
vector 286 RSUExampleScenario.node[57].veinsmobility posy ETV
vector 287 RSUExampleScenario.node[57].veinsmobility speed ETV
vector 288 RSUExampleScenario.node[57].veinsmobility acceleration ETV
vector 289 RSUExampleScenario.node[57].veinsmobility co2emission ETV
vector 290 RSUExampleScenario.node[58].veinsmobility posx ETV
vector 291 RSUExampleScenario.node[58].veinsmobility posy ETV
vector 292 RSUExampleScenario.node[58].veinsmobility speed ETV
vector 293 RSUExampleScenario.node[58].veinsmobility acceleration ETV
vector 294 RSUExampleScenario.node[58].veinsmobility co2emission ETV
vector 295 RSUExampleScenario.node[59].veinsmobility posx ETV
vector 296 RSUExampleScenario.node[59].veinsmobility posy ETV
vector 297 RSUExampleScenario.node[59].veinsmobility speed ETV
vector 298 RSUExampleScenario.node[59].veinsmobility acceleration ETV
vector 299 RSUExampleScenario.node[59].veinsmobility co2emission ETV
vector 300 RSUExampleScenario.node[60].veinsmobility posx ETV
vector 301 RSUExampleScenario.node[60].veinsmobility posy ETV
vector 302 RSUExampleScenario.node[60].veinsmobility speed ETV
vector 303 RSUExampleScenario.node[60].veinsmobility acceleration ETV
vector 304 RSUExampleScenario.node[60].veinsmobility co2emission ETV
vector 305 RSUExampleScenario.node[61].veinsmobility posx ETV
vector 306 RSUExampleScenario.node[61].veinsmobility posy ETV
vector 307 RSUExampleScenario.node[61].veinsmobility speed ETV
vector 308 RSUExampleScenario.node[61].veinsmobility acceleration ETV
vector 309 RSUExampleScenario.node[61].veinsmobility co2emission ETV
vector 310 RSUExampleScenario.node[62].veinsmobility posx ETV
vector 311 RSUExampleScenario.node[62].veinsmobility posy ETV
vector 312 RSUExampleScenario.node[62].veinsmobility speed ETV
vector 313 RSUExampleScenario.node[62].veinsmobility acceleration ETV
vector 314 RSUExampleScenario.node[62].veinsmobility co2emission ETV
vector 315 RSUExampleScenario.node[63].veinsmobility posx ETV
vector 316 RSUExampleScenario.node[63].veinsmobility posy ETV
vector 317 RSUExampleScenario.node[63].veinsmobility speed ETV
vector 318 RSUExampleScenario.node[63].veinsmobility acceleration ETV
vector 319 RSUExampleScenario.node[63].veinsmobility co2emission ETV
vector 320 RSUExampleScenario.node[64].veinsmobility posx ETV
vector 321 RSUExampleScenario.node[64].veinsmobility posy ETV
vector 322 RSUExampleScenario.node[64].veinsmobility speed ETV
0	11	1	2414.8476884116
0	40	2	2414.8476884116
0	69	3	2411.8243290941
0	98	4	2407.1592244543
0	160	5	2402.288200066
0	222	6	2396.1394374635
0	284	7	2388.6993875942
0	394	8	2379.889221533
0	506	9	2370.1207192459
0	618	10	2360.3141803208
0	794	11	2350.5099475634
0	1000	12	2341.0010868867
0	1177	13	2334.5620136983
0	1423	14	2337.6803779466
0	1720	15	2348.3497968862
0	1964	16	2358.6961674725
0	2291	17	2371.6616533546
0	2694	18	2385.4706804305
0	3025	19	2399.3588350668
0	3449	20	2412.4541998667
0	3963	21	2421.4418196582
0	4483	22	2428.417609864
0	5018	23	2431.468930052
0	5667	24	2433.1513403206
0	6318	25	2435.1237040944
0	6990	26	2437.2173147583
0	7795	27	2438.6437980286
0	8599	28	2439.507140702
0	9407	29	2440.5168349342
0	10359	30	2441.5278058891
0	11308	31	2442.5382486607
0	12395	32	2443.5488532796
0	13491	33	2444.5594112432
0	14577	34	2445.5711169722
0	15821	35	2446.582376591
0	17046	36	2447.5919558281
0	18239	37	2448.6031892332
0	19588	38	2449.6149892075
0	20940	39	2450.6261800874
0	22264	40	2449.5849426031
0	23856	41	2448.4731580119
0	25507	42	2447.360420912
0	28187	43	2446.2468767074
0	29889	44	2445.1353870609
0	32384	45	2444.0231554533
0	34080	46	2442.9091168698
0	36101	47	2441.7956037777
0	38147	48	2440.6831251516
0	40188	49	2439.7142424539
0	42320	50	2438.7728778847
0	44682	51	2437.9077302503
0	46898	52	2432.8841778212
0	49268	53	2422.537370182
0	51890	54	2409.4503414873
0	54340	55	2395.5288969092
0	56961	56	2381.6032895291
0	59871	57	2367.6769564617
0	62601	58	2353.7711272778
0	65467	59	2339.8447602475
0	68543	60	2325.9157281878
0	71555	61	2312.0070824502
0	74681	62	2298.08533496
0	77926	63	2284.1670662299
0	80965	64	2270.2425212535
0	84061	65	2256.3176411064
0	87266	66	2242.424505253
0	90387	67	2228.6170645824
0	93557	68	2214.8794525821
0	96826	69	2201.689714129
0	99920	70	2188.4792570851
0	103281	71	2175.54540832
0	106778	72	2163.5409818961
0	110131	73	2152.2934902906
0	113499	74	2144.6002404471
0	117254	75	2140.7767663345
0	120773	76	2140.3192577759
0	124426	77	2140.3192577759
0	128317	78	2140.3192577759
0	131697	79	2140.3192577759
0	135422	80	2140.3192577759
0	139450	81	2140.3192577759
0	143155	82	2140.3192577759
0	147266	83	2140.3192577759
0	151324	84	2140.3192577759
0	155341	85	2140.3192577759
0	159739	86	2140.3192577759
0	164281	87	2140.3192577759
0	168945	88	2140.3192577759
0	173602	89	2140.3192577759
0	178617	90	2140.3192577759
0	183745	91	2140.3192577759
0	188830	92	2140.3192577759
0	194415	93	2140.3192577759
0	199506	94	2140.3192577759
0	207369	95	2140.3192577759
0	213024	96	2140.3192577759
0	220149	97	2140.3192577759
0	225934	98	2140.3192577759
0	231705	99	2140.3192577759
0	237419	100	2140.3192577759
0	243729	101	2140.3192577759
0	249905	102	2140.3192577759
0	255821	103	2140.3192577759
0	262091	104	2140.3192577759
0	268389	105	2140.3192577759
0	274292	106	2140.3192577759
0	280900	107	2140.3192577759
0	287507	108	2140.3192577759
0	293818	109	2140.3192577759
0	300425	110	2140.3192577759
0	307622	111	2140.3192577759
0	314423	112	2140.3192577759
0	321290	113	2140.3192577759
0	328487	114	2140.3192577759
0	335486	115	2140.3192577759
0	342493	116	2140.3192577759
0	350181	117	2140.3192577759
0	357415	118	2140.3192577759
0	364740	119	2140.3192577759
0	372243	120	2140.3192577759
0	380003	121	2140.3192577759
0	387978	122	2140.3192577759
0	395959	123	2140.3192577759
0	404091	124	2140.3192577759
0	412433	125	2139.2953743006
0	420942	126	2136.7568301068
0	429555	127	2133.1379833645
0	438388	128	2128.3010337128
0	446830	129	2122.2473163173
0	455103	130	2114.9637259811
0	463890	131	2106.2252898039
0	472783	132	2096.7018030653
0	480753	133	2087.1737304388
0	489620	134	2077.630492538
0	498097	135	2068.1025115519
0	508794	136	2058.5712846809
0	517422	137	2049.0546271373
0	527028	138	2039.1108329461
0	535011	139	2029.1082761094
0	543845	140	2019.118928177
0	552976	141	2009.1493091795
0	562382	142	1999.1532538532
0	571431	143	1989.1495426124
0	580903	144	1979.1602449464
0	590220	145	1969.1753992034
0	599808	146	1959.1813039205
0	609922	147	1949.1854407602
0	620191	148	1939.1798240312
0	629738	149	1929.4012350283
0	639986	150	1919.6705494089
0	649784	151	1909.9450578877
0	660727	152	1900.1993128892
0	671187	153	1890.4619753069
0	681519	154	1880.7352879196
0	692091	155	1871.0111253043
0	703052	156	1861.2721931078
0	714245	157	1851.5475227373
0	725797	158	1841.7987585933
0	736872	159	1831.8978910748
0	748535	160	1821.8007279939
0	760138	161	1811.696681447
0	772735	162	1801.708246235
0	784748	163	1791.769314168
0	796658	164	1781.8159374736
0	808699	165	1771.8608414987
0	821000	166	1761.8984620825
0	834363	167	1751.9522344162
0	850131	168	1742.0001909627
0	862544	169	1732.0400942081
0	877329	170	1722.0744031491
0	890747	171	1712.1154099031
0	904524	172	1702.152275738
0	918203	173	1692.1790972191
0	932308	174	1682.2305521965
0	945669	175	1672.2868405036
0	959417	176	1662.3295531955
0	974105	177	1652.387154739
0	988176	178	1642.4353243397
0	1001518	179	1632.4822183176
0	1015774	180	1622.5363470572
0	1029418	181	1612.7279095737
0	1043816	182	1602.9156972538
0	1057743	183	1593.1016079189
0	1071755	184	1583.2771141394
0	1085025	185	1573.4614566114
0	1098896	186	1563.638994178
0	1113316	187	1553.3214912981
0	1127762	188	1542.7697797535
0	1141713	189	1532.2128987013
0	1156030	190	1521.6644566345
0	1169860	191	1511.0988689677
0	1184851	192	1500.2181093777
0	1198888	193	1488.8009235552
0	1213474	194	1477.3727016147
1	11	1	1578.4613427464
1	40	2	1578.4613427464
1	69	3	1579.5715045081
1	98	4	1581.5561876604
1	160	5	1586.4898643075
1	222	6	1592.7177137369
1	284	7	1600.2534592729
1	394	8	1609.1769437566
1	506	9	1619.0710908128
1	618	10	1629.0037637418
1	794	11	1638.9341008412
1	1000	12	1649.1129276818
1	1177	13	1661.0453354148
1	1423	14	1673.5713017788
1	1720	15	1682.4825292248
1	1964	16	1691.8131453674
1	2291	17	1695.5671389326
1	2694	18	1697.3762977775
1	3025	19	1698.7149431584
1	3449	20	1699.9531973498
1	3963	21	1700.8030368192
1	4483	22	1701.4822415169
1	5018	23	1709.488976148
1	5667	24	1720.5600911779
1	6318	25	1733.5392477075
1	6990	26	1747.3162704222
1	7795	27	1761.1584832035
1	8599	28	1775.0661917226
1	9407	29	1788.9514784869
1	10359	30	1802.8543227054
1	11308	31	1816.7499033613
1	12395	32	1830.6477097366
1	13491	33	1844.5448745117
1	14577	34	1858.4578233231
1	15821	35	1872.3646372398
1	17046	36	1886.2483425932
1	18239	37	1900.1547960201
1	19588	38	1914.0690408889
1	20940	39	1927.9749095105
1	22264	40	1941.8581130411
1	23856	41	1955.7346291849
1	25507	42	1969.6230338728
1	28187	43	1983.5215122774
1	29889	44	1997.3943471266
1	32384	45	2011.2764426153
1	34080	46	2025.1810915098
1	36101	47	2039.0791815892
1	38147	48	2052.9643601906
1	40188	49	2066.8593518771
1	42320	50	2080.7677547717
1	44682	51	2094.6390296733
1	46898	52	2107.3874734333
1	49268	53	2116.4063386014
1	51890	54	2120.9336178154
1	54340	55	2120.5052069537
1	56961	56	2120.0348576335
1	59871	57	2119.5644838028
1	62601	58	2119.0948025091
1	65467	59	2118.6244275309
1	68543	60	2118.1539625395
1	71555	61	2117.6841861131
1	74681	62	2117.213967164
1	77926	63	2116.7438657135
1	80965	64	2116.2735522771
1	84061	65	2115.8032275196
1	87266	66	2114.802944852
1	90387	67	2112.8449430456
1	93557	68	2110.6697878866
1	96826	69	2106.1964427289
1	99920	70	2101.7160707898
1	103281	71	2096.6596232662
1	106778	72	2089.5928069744
1	110131	73	2082.9715862582
1	113499	74	2078.4426915478
1	117254	75	2076.1918727085
1	120773	76	2075.9225446433
1	124426	77	2075.9225446433
1	128317	78	2075.9225446433
1	131697	79	2075.9225446433
1	135422	80	2075.9225446433
1	139450	81	2075.9225446433
1	143155	82	2075.9225446433
1	147266	83	2075.9225446433
1	151324	84	2075.9225446433
1	155341	85	2075.9225446433
1	159739	86	2075.9225446433
1	164281	87	2075.9225446433
1	168945	88	2075.9225446433
1	173602	89	2075.9225446433
1	178617	90	2075.9225446433
1	183745	91	2075.9225446433
1	188830	92	2075.9225446433
1	194415	93	2075.9225446433
1	199506	94	2075.9225446433
1	207369	95	2075.9225446433
1	213024	96	2075.9225446433
1	220149	97	2075.9225446433
1	225934	98	2075.9225446433
1	231705	99	2075.9225446433
1	237419	100	2075.9225446433
1	243729	101	2075.9225446433
1	249905	102	2075.9225446433
1	255821	103	2075.9225446433
1	262091	104	2075.9225446433
1	268389	105	2075.9225446433
1	274292	106	2075.9225446433
1	280900	107	2075.9225446433
1	287507	108	2075.9225446433
1	293818	109	2075.9225446433
1	300425	110	2075.9225446433
1	307622	111	2075.9225446433
1	314423	112	2075.9225446433
1	321290	113	2075.9225446433
1	328487	114	2075.9225446433
1	335486	115	2075.9225446433
1	342493	116	2075.9225446433
1	350181	117	2075.9225446433
1	357415	118	2075.9225446433
1	364740	119	2075.9225446433
1	372243	120	2075.9225446433
1	380003	121	2075.9225446433
1	387978	122	2075.9225446433
1	395959	123	2075.9225446433
1	404091	124	2075.9225446433
1	412433	125	2075.123694404
1	420942	126	2072.8832902526
1	429555	127	2069.0201673117
1	438388	128	2063.8567181528
1	446830	129	2057.3943680674
1	455103	130	2049.6191272438
1	463890	131	2040.2908368586
1	472783	132	2030.124504122
1	480753	133	2019.953275945
1	489620	134	2009.7658588206
1	498097	135	1999.5947284698
1	508794	136	1989.4201331334
1	517422	137	1979.2610905701
1	527028	138	1969.5008033654
1	535011	139	1959.7773286477
1	543845	140	1950.0666942904
1	552976	141	1940.3752384102
1	562382	142	1930.658083803
1	571431	143	1920.93348689
1	580903	144	1911.2229013974
1	590220	145	1901.5166436145
1	599808	146	1891.8013943629
1	609922	147	1882.0844265604
1	620191	148	1872.3579773242
1	629738	149	1862.4164164988
1	639986	150	1852.4449915029
1	649784	151	1842.4788891077
1	660727	152	1832.4920321591
1	671187	153	1822.5137906289
1	681519	154	1812.5464627817
1	692091	155	1802.5817221701
1	703052	156	1792.6018465748
1	714245	157	1782.6365856454
1	725797	158	1772.6466348581
1	736872	159	1762.8557028128
1	748535	160	1753.2659718171
1	760138	161	1743.6697032833
1	772735	162	1733.9573878534
1	784748	163	1724.2171099456
1	796658	164	1714.4626761209
1	808699	165	1704.70655738
1	821000	166	1694.9433007753
1	834363	167	1685.1958730882
1	850131	168	1675.442745856
1	862544	169	1665.681726289
1	877329	170	1655.9152242327
1	890747	171	1646.1552861175
1	904524	172	1636.3912898488
1	918203	173	1626.6174499886
1	932308	174	1616.8677512631
1	945669	175	1607.1227892609
1	959417	176	1597.3645229861
1	974105	177	1587.620847973
1	988176	178	1577.8679295368
1	1001518	179	1568.1137609743
1	1015774	180	1558.3666825695
1	1029418	181	1548.6222280469
1	1043816	182	1538.7172532156
1	1057743	183	1528.8103836244
1	1071755	184	1518.8930112273
1	1085025	185	1508.9845586177
1	1098896	186	1499.0692367712
1	1113316	187	1489.6824516887
1	1127762	188	1480.5551644526
1	1141713	189	1471.4234055644
1	1156030	190	1462.2989464439
1	1169860	191	1453.1596562881
1	1184851	192	1444.45970695
1	1198888	193	1436.4137777565
1	1213474	194	1428.3600711795
2	40	2	4.1061966058897
2	69	3	6.0195495591482
2	98	4	7.7148368984793
2	160	5	9.5879868385225
2	222	6	11.391389363371
2	284	7	13.513839789145
2	394	8	13.99235115225
2	506	9	13.890224446259
2	618	10	13.976677174468
2	794	11	13.994826577434
2	1000	12	13.923680325528
2	1177	13	13.923542996629
2	1423	14	13.91007151508
2	1720	15	13.964598868005
2	1964	16	13.995233640105
2	2291	17	13.952304350403
2	2694	18	13.956911946491
2	3025	19	11.503494614513
2	3449	20	7.0034946145128
2	3963	21	7.8970062485022
2	4483	22	10.10483181514
2	5018	23	11.990706169653
2	5667	24	13.981089308816
2	6318	25	13.965594365916
2	6990	26	13.989059597438
2	7795	27	13.877222571659
2	8599	28	13.918354013262
2	9407	29	13.888876189466
2	10359	30	13.921676150814
2	11308	31	13.912724821663
2	12395	32	13.971223541987
2	13491	33	13.95532245066
2	14577	34	13.886060714563
2	15821	35	13.891049715274
2	17046	36	13.994739422924
2	18239	37	13.960768315075
2	19588	38	13.968891001421
2	20940	39	13.917089536462
2	22264	40	13.881585510303
2	23856	41	13.878239570523
2	25507	42	13.987141459195
2	28187	43	13.878737740642
2	29889	44	13.879970237834
2	32384	45	13.968386581719
2	34080	46	13.937467161661
2	36101	47	13.940046267887
2	38147	48	13.98682559514
2	40188	49	13.906229756428
2	42320	50	13.935194088209
2	44682	51	13.930097484484
2	46898	52	13.948393711536
2	49268	53	13.882971800906
2	51890	54	13.87138918183
2	54340	55	13.933780807857
2	56961	56	13.942265776542
2	59871	57	13.95140511482
2	62601	58	13.886548467774
2	65467	59	13.943164561798
2	68543	60	13.906786733486
2	71555	61	13.916463552972
2	74681	62	13.875273183903
2	77926	63	13.876142147961
2	80965	64	13.987848042876
2	84061	65	13.952943562577
2	87266	66	13.901089825113
2	90387	67	13.940473914391
2	93557	68	13.936207722605
2	96826	69	13.943387578814
2	99920	70	13.921017126278
2	103281	71	13.884926527026
2	106778	72	11.364409305546
2	110131	73	6.9117942010033
2	113499	74	2.4117942010033
2	117254	75	0
2	120773	76	0
2	124426	77	0
2	128317	78	0
2	131697	79	0
2	135422	80	0
2	139450	81	0
2	143155	82	0
2	147266	83	0
2	151324	84	0
2	155341	85	0
2	159739	86	0
2	164281	87	0
2	168945	88	0
2	173602	89	0
2	178617	90	0
2	183745	91	0
2	188830	92	0
2	194415	93	0
2	199506	94	0
2	207369	95	0
2	213024	96	0
2	220149	97	0
2	225934	98	0
2	231705	99	0
2	237419	100	0
2	243729	101	0
2	249905	102	0
2	255821	103	0
2	262091	104	0
2	268389	105	0
2	274292	106	0
2	280900	107	0
2	287507	108	0
2	293818	109	0
2	300425	110	0
2	307622	111	0
2	314423	112	0
2	321290	113	0
2	328487	114	0
2	335486	115	0
2	342493	116	0
2	350181	117	0
2	357415	118	0
2	364740	119	0
2	372243	120	0
2	380003	121	0
2	387978	122	0
2	395959	123	0
2	404091	124	2.2219942613752
2	412433	125	4.2192697606846
2	420942	126	6.1163220751826
2	429555	127	7.8959399012621
2	438388	128	9.6407142936304
2	446830	129	11.556862327769
2	455103	130	13.690180360727
2	463890	131	13.99311179243
2	472783	132	13.979247615756
2	480753	133	13.959169053461
2	489620	134	13.973926755995
2	498097	135	13.942867385286
2	508794	136	13.880469608139
2	517422	137	13.88219729251
2	527028	138	13.996216358903
2	535011	139	13.895778011545
2	543845	140	13.872990144717
2	552976	141	13.896511151143
2	562382	142	13.87916944006
2	571431	143	13.959757562766
2	580903	144	13.951845014077
2	590220	145	13.969725345897
2	599808	146	13.940032734526
2	609922	147	13.992643231936
2	620191	148	13.887445850775
2	629738	149	13.906814875356
2	639986	150	13.903715547635
2	649784	151	13.934981767656
2	660727	152	13.911691711091
2	671187	153	13.962319403619
2	681519	154	13.961139623357
2	692091	155	13.912612352434
2	703052	156	13.938801514008
2	714245	157	13.954196195363
2	725797	158	13.90119767799
2	736872	159	13.978650834695
2	748535	160	13.994602999552
2	760138	161	13.917465557167
2	772735	162	13.896664442469
2	784748	163	13.886995853363
2	796658	164	13.933601469116
2	808699	165	13.908791816209
2	821000	166	13.967838969363
2	834363	167	13.991798667081
2	850131	168	13.917895737223
2	862544	169	13.959370903168
2	877329	170	13.993800471327
2	890747	171	13.941543903383
2	904524	172	13.99905962375
2	918203	173	13.898754838682
2	932308	174	13.901039778939
2	945669	175	13.889552024961
2	959417	176	13.980320815244
2	974105	177	13.902077802429
2	988176	178	13.884282559752
2	1001518	179	13.98734351642
2	1015774	180	13.991006350033
2	1029418	181	13.910839694955
2	1043816	182	13.941110645256
2	1057743	183	13.952238661796
2	1071755	184	13.940481888067
2	1085025	185	13.961994855104
2	1098896	186	13.95752226969
2	1113316	187	13.983610787343
2	1127762	188	13.998428307101
2	1141713	189	13.991219906337
2	1156030	190	13.956646108269
2	1169860	191	13.939253328196
2	1184851	192	13.966398189701
2	1198888	193	13.983735861855
2	1213474	194	13.940042377058
3	69	3	1.9133529532584
3	98	4	1.6952873393311
3	160	5	1.8731499400432
3	222	6	1.8034025248489
3	284	7	2.1224504257739
3	394	8	0.47851136310433
3	506	9	-0.1021267059911
3	618	10	0.086452728209551
3	794	11	0.018149402965792
3	1000	12	-0.071146251906175
3	1177	13	-0.0001373288989992
3	1423	14	-0.013471481548622
3	1720	15	0.054527352924923
3	1964	16	0.03063477210002
3	2291	17	-0.04292928970186
3	2694	18	0.0046075960877356
3	3025	19	-2.4534173319781
3	3449	20	-4.5
3	3963	21	0.8935116339894
3	4483	22	2.2078255666373
3	5018	23	1.8858743545134
3	5667	24	1.9903831391631
3	6318	25	-0.01549494290026
3	6990	26	0.023465231521987
3	7795	27	-0.11183702577837
3	8599	28	0.041131441602484
3	9407	29	-0.029477823795752
3	10359	30	0.032799961348065
3	11308	31	-0.0089513291511683
3	12395	32	0.058498720324133
3	13491	33	-0.01590109132696
3	14577	34	-0.069261736096815
3	15821	35	0.0049890007101929
3	17046	36	0.10368970765034
3	18239	37	-0.03397110784892
3	19588	38	0.0081226863455957
3	20940	39	-0.051801464958116
3	22264	40	-0.035504026159179
3	23856	41	-0.0033459397801199
3	25507	42	0.10890188867226
3	28187	43	-0.10840371855302
3	29889	44	0.0012324971915216
3	32384	45	0.088416343885475
3	34080	46	-0.030919420057907
3	36101	47	0.0025791062251663
3	38147	48	0.04677932725288
3	40188	49	-0.080595838711599
3	42320	50	0.028964331781026
3	44682	51	-0.0050966037251055
3	46898	52	0.018296227052343
3	49268	53	-0.065421910630539
3	51890	54	-0.011582619075197
3	54340	55	0.062391626026946
3	56961	56	0.0084849686850799
3	59871	57	0.0091393382777465
3	62601	58	-0.064856647045817
3	65467	59	0.056616094023919
3	68543	60	-0.036377828312107
3	71555	61	0.0096768194856125
3	74681	62	-0.041190369068644
3	77926	63	0.00086896405788117
3	80965	64	0.11170589491492
3	84061	65	-0.034904480299447
3	87266	66	-0.051853737463242
3	90387	67	0.039384089277592
3	93557	68	-0.0042661917861562
3	96826	69	0.0071798562095502
3	99920	70	-0.02237045253627
3	103281	71	-0.03609059925191
3	106778	72	-2.5205172214798
3	110131	73	-4.452615104543
3	113499	74	-4.5
3	117254	75	-2.4117942010033
3	120773	76	0
3	124426	77	0
3	128317	78	0
3	131697	79	0
3	135422	80	0
3	139450	81	0
3	143155	82	0
3	147266	83	0
3	151324	84	0
3	155341	85	0
3	159739	86	0
3	164281	87	0
3	168945	88	0
3	173602	89	0
3	178617	90	0
3	183745	91	0
3	188830	92	0
3	194415	93	0
3	199506	94	0
3	207369	95	0
3	213024	96	0
3	220149	97	0
3	225934	98	0
3	231705	99	0
3	237419	100	0
3	243729	101	0
3	249905	102	0
3	255821	103	0
3	262091	104	0
3	268389	105	0
3	274292	106	0
3	280900	107	0
3	287507	108	0
3	293818	109	0
3	300425	110	0
3	307622	111	0
3	314423	112	0
3	321290	113	0
3	328487	114	0
3	335486	115	0
3	342493	116	0
3	350181	117	0
3	357415	118	0
3	364740	119	0
3	372243	120	0
3	380003	121	0
3	387978	122	0
3	395959	123	0
3	404091	124	2.2219942613752
3	412433	125	1.9972754993094
3	420942	126	1.897052314498
3	429555	127	1.7796178260795
3	438388	128	1.7447743923683
3	446830	129	1.9161480341386
3	455103	130	2.1333180329576
3	463890	131	0.3029314317037
3	472783	132	-0.013864176673815
3	480753	133	-0.020078562295531
3	489620	134	0.014757702534553
3	498097	135	-0.031059370709118
3	508794	136	-0.062397777147124
3	517422	137	0.0017276843707066
3	527028	138	0.11401906639338
3	535011	139	-0.10043834735872
3	543845	140	-0.022787866827565
3	552976	141	0.023521006426309
3	562382	142	-0.017341711083429
3	571431	143	0.080588122706395
3	580903	144	-0.007912548689637
3	590220	145	0.017880331820344
3	599808	146	-0.029692611370702
3	609922	147	0.052610497409479
3	620191	148	-0.10519738116069
3	629738	149	0.01936902458081
3	639986	150	-0.003099327720701
3	649784	151	0.031266220021061
3	660727	152	-0.023290056565312
3	671187	153	0.050627692528069
3	681519	154	-0.0011797802615909
3	692091	155	-0.048527270923369
3	703052	156	0.026189161574003
3	714245	157	0.01539468135452
3	725797	158	-0.052998517372181
3	736872	159	0.077453156705015
3	748535	160	0.015952164856717
3	760138	161	-0.077137442384847
3	772735	162	-0.020801114698406
3	784748	163	-0.0096685891062958
3	796658	164	0.046605615753215
3	808699	165	-0.024809652906843
3	821000	166	0.059047153154388
3	834363	167	0.023959697717801
3	850131	168	-0.073902929858304
3	862544	169	0.041475165945011
3	877329	170	0.034429568159394
3	890747	171	-0.052256567943841
3	904524	172	0.057515720366501
3	918203	173	-0.10030478506815
3	932308	174	0.0022849402576686
3	945669	175	-0.011487753977999
3	959417	176	0.090768790282308
3	974105	177	-0.078243012814783
3	988176	178	-0.017795242676511
3	1001518	179	0.10306095666718
3	1015774	180	0.0036628336133422
3	1029418	181	-0.080166655078063
3	1043816	182	0.030270950300618
3	1057743	183	0.011128016540315
3	1071755	184	-0.011756773728411
3	1085025	185	0.021512967036104
3	1098896	186	-0.0044725854136036
3	1113316	187	0.026088517652823
3	1127762	188	0.014817519758363
3	1141713	189	-0.0072084007645028
3	1156030	190	-0.034573798067868
3	1169860	191	-0.017392780072987
3	1184851	192	0.027144861505366
3	1198888	193	0.017337672153953
3	1213474	194	-0.043693484796677
4	69	3	4.1962556146115
4	98	4	4.6765885426193
4	160	5	5.9822455727343
4	222	6	6.7469998477461
4	284	7	8.9023657158011
4	394	8	3.651678681686
4	506	9	1.6857621818206
4	618	10	2.3276633668785
4	794	11	2.0995306276608
4	1000	12	1.7923040941768
4	1177	13	2.0305681317735
4	1423	14	1.9844951865828
4	1720	15	2.2187318873595
4	1964	16	2.1416854339172
4	2291	17	1.8896148890835
4	2694	18	2.0499339673421
4	3025	19	0.973
4	3449	20	0.973
4	3963	21	3.236958348016
4	4483	22	7.0694109561587
4	5018	23	7.2974163894139
4	5667	24	8.7433911631671
4	6318	25	1.9831721788576
4	6990	26	2.116835898497
4	7795	27	1.6522851203343
4	8599	28	2.1684681009302
4	9407	29	1.9288299718161
4	10359	30	2.1408865415702
4	11308	31	1.9999127940945
4	12395	32	2.2328685653017
4	13491	33	1.9807942376083
4	14577	34	1.7954251913511
4	15821	35	2.0444216661281
4	17046	36	2.3880258516001
4	18239	37	1.9205327323871
4	19588	38	2.0630059435835
4	20940	39	1.8566279931928
4	22264	40	1.907980077475
4	23856	41	2.015226384052
4	25507	42	2.4046270271703
4	28187	43	1.6638818908046
4	29889	44	2.0307160721553
4	32384	45	2.333252402602
4	34080	46	1.9285933494582
4	36101	47	2.0413774305433
4	38147	48	2.1951820933273
4	40188	49	1.7591557197836
4	42320	50	2.1294907851021
4	44682	51	2.0145873760113
4	46898	52	2.0950692067684
4	49268	53	1.8080099866508
4	51890	54	1.9870007069688
4	54340	55	2.2415869227426
4	56961	56	2.0614496349521
4	59871	57	2.0646020593826
4	62601	58	1.8102089718445
4	65467	59	2.2232784009432
4	68543	60	1.9073998575852
4	71555	61	2.062762044468
4	74681	62	1.8883778389153
4	77926	63	2.0291102280371
4	80965	64	2.4141704747252
4	84061	65	1.9166582988053
4	87266	66	1.8550229539719
4	90387	67	2.1650733738209
4	93557	68	2.0179924107185
4	96826	69	2.057180839829
4	99920	70	1.9557193298147
4	103281	71	1.9063282963633
4	106778	72	0.973
4	110131	73	0.973
4	113499	74	0.973
4	117254	75	0.973
4	120773	76	0.973
4	124426	77	0.973
4	128317	78	0.973
4	131697	79	0.973
4	135422	80	0.973
4	139450	81	0.973
4	143155	82	0.973
4	147266	83	0.973
4	151324	84	0.973
4	155341	85	0.973
4	159739	86	0.973
4	164281	87	0.973
4	168945	88	0.973
4	173602	89	0.973
4	178617	90	0.973
4	183745	91	0.973
4	188830	92	0.973
4	194415	93	0.973
4	199506	94	0.973
4	207369	95	0.973
4	213024	96	0.973
4	220149	97	0.973
4	225934	98	0.973
4	231705	99	0.973
4	237419	100	0.973
4	243729	101	0.973
4	249905	102	0.973
4	255821	103	0.973
4	262091	104	0.973
4	268389	105	0.973
4	274292	106	0.973
4	280900	107	0.973
4	287507	108	0.973
4	293818	109	0.973
4	300425	110	0.973
4	307622	111	0.973
4	314423	112	0.973
4	321290	113	0.973
4	328487	114	0.973
4	335486	115	0.973
4	342493	116	0.973
4	350181	117	0.973
4	357415	118	0.973
4	364740	119	0.973
4	372243	120	0.973
4	380003	121	0.973
4	387978	122	0.973
4	395959	123	0.973
4	404091	124	2.4080817491368
4	412433	125	3.3513940089178
4	420942	126	4.2225072863309
4	429555	127	4.9228493955403
4	438388	128	5.7116732880665
4	446830	129	7.1469569953083
4	455103	130	9.0459701824403
4	463890	131	3.0597291514212
4	472783	132	1.9900125847338
4	480753	133	1.9671190458197
4	489620	134	2.0858759986561
4	498097	135	1.928634181174
4	508794	136	1.817911413652
4	517422	137	2.0325997943001
4	527028	138	2.4230560175092
4	535011	139	1.6918445826064
4	543845	140	1.9496953299766
4	552976	141	2.1070486504113
4	562382	142	1.9685059558784
4	571431	143	2.3058494566705
4	580903	144	2.0073128054991
4	590220	145	2.09594404991
4	599808	146	1.9329576597255
4	609922	147	2.2155078963458
4	620191	148	1.6752708238213
4	629738	149	2.0942404170738
4	639986	150	2.0186235044317
4	649784	151	2.1371981361091
4	660727	152	1.9517360645994
4	671187	153	2.2053467578481
4	681519	154	2.030898498046
4	692091	155	1.8672058365315
4	703052	156	2.1205616861839
4	714245	157	2.0859299128273
4	725797	158	1.8511973563317
4	736872	159	2.2975883125595
4	748535	160	2.0920961055396
4	760138	161	1.7716819874993
4	772735	162	1.958626073808
4	784748	163	1.9949489867847
4	796658	164	2.1885565352315
4	808699	165	1.9463632295227
4	821000	166	2.234320692226
4	834363	167	2.1187994521774
4	850131	168	1.7825670787104
4	862544	169	2.1742182756778
4	877329	170	2.1543259019329
4	890747	171	1.8572882264089
4	904524	172	2.2327962119986
4	918203	173	1.6925228421934
4	932308	174	2.0363912079287
4	945669	175	1.9891135413082
4	959417	176	2.3426542861489
4	974105	177	1.7666965334165
4	988176	178	1.9674867412023
4	1001518	179	2.3849635444817
4	1015774	180	2.0502760442319
4	1029418	181	1.760974550077
4	1043816	182	2.1345260336215
4	1057743	183	2.0713759816221
4	1071755	184	1.9932585494505
4	1085025	185	2.1073431927647
4	1098896	186	2.0194534593973
4	1113316	187	2.1250874449305
4	1127762	188	2.0886751645098
4	1141713	189	2.0136415788682
4	1156030	190	1.91811785173
4	1169860	191	1.9742032282954
4	1184851	192	2.1267728058811
4	1198888	193	2.0956099905707
4	1213474	194	1.885921937875
5	98	4	2414.8767583254
5	160	5	2414.8767583254
5	222	6	2411.8725636174
5	284	7	2407.2970525089
5	394	8	2402.4626210862
5	506	9	2396.3056860371
5	618	10	2388.8743536096
5	794	11	2380.097228827
5	1000	12	2370.3507264333
5	1177	13	2360.5878487076
5	1423	14	2350.7849318213
5	1720	15	2341.2418729237
5	1964	16	2334.6305580324
5	2291	17	2337.3467480277
5	2694	18	2348.0519014368
5	3025	19	2358.3998493504
5	3449	20	2371.2788021446
5	3963	21	2385.0887639745
5	4483	22	2398.4985461925
5	5018	23	2411.2485283293
5	5667	24	2420.6905829484
5	6318	25	2427.6440450998
5	6990	26	2431.3031180431
5	7795	27	2432.9057471878
5	8599	28	2434.8184996871
5	9407	29	2436.9106889558
5	10359	30	2438.5031214217
5	11308	31	2439.359369674
5	12395	32	2440.3699753261
5	13491	33	2441.3812155229
5	14577	34	2442.3909521443
5	15821	35	2443.4020672333
5	17046	36	2444.412323216
5	18239	37	2445.4217232845
5	19588	38	2446.4337442619
5	20940	39	2447.4435795635
5	22264	40	2448.4539429706
5	23856	41	2449.4627016197
5	25507	42	2450.472728043
5	28187	43	2449.7536587433
5	29889	44	2448.6399785506
5	32384	45	2447.5274934774
5	34080	46	2446.4147042828
5	36101	47	2445.3026524738
5	38147	48	2444.1890526167
5	40188	49	2443.076398537
5	42320	50	2441.9643388658
5	44682	51	2440.8514520553
5	46898	52	2439.8562375588
5	49268	53	2438.9150374633
5	51890	54	2438.2414375357
5	54340	55	2433.9448397475
5	56961	56	2424.2813572587
5	59871	57	2411.4214146036
5	62601	58	2397.547809306
5	65467	59	2383.6359433007
5	68543	60	2369.7169805304
5	71555	61	2355.7485302567
5	74681	62	2341.8180114337
5	77926	63	2327.8843340462
5	80965	64	2313.9496824988
5	84061	65	2300.0469606485
5	87266	66	2286.1083433357
5	90387	67	2272.1841348442
5	93557	68	2258.2574818593
5	96826	69	2244.3366393131
5	99920	70	2230.5209683873
5	103281	71	2216.7249165376
5	106778	72	2203.4784491527
5	110131	73	2190.2669166181
5	113499	74	2177.1938085994
5	117254	75	2166.0248625313
5	120773	76	2157.5911469614
5	124426	77	2151.7455137938
5	128317	78	2148.1088708944
5	131697	79	2146.1286962974
5	135422	80	2145.203852499
5	139450	81	2144.8369699223
5	143155	82	2144.7029622542
5	147266	83	2144.6555224638
5	151324	84	2144.6384838704
5	155341	85	2144.6323665571
5	159739	86	2144.630168233
5	164281	87	2144.629383884
5	168945	88	2144.6291034662
5	173602	89	2144.6290018311
5	178617	90	2144.6289652229
5	183745	91	2144.6289528295
5	188830	92	2144.6289528295
5	194415	93	2144.6289528295
5	199506	94	2144.6289528295
5	207369	95	2144.6289528295
5	213024	96	2144.6289528295
5	220149	97	2144.6289528295
5	225934	98	2144.6289528295
5	231705	99	2144.6289528295
5	237419	100	2144.6289528295
5	243729	101	2144.6289528295
5	249905	102	2144.6289528295
5	255821	103	2144.6289528295
5	262091	104	2144.6289528295
5	268389	105	2144.6289528295
5	274292	106	2144.6289528295
5	280900	107	2144.6289528295
5	287507	108	2144.6289528295
5	293818	109	2144.6289528295
5	300425	110	2144.6289528295
5	307622	111	2144.6289528295
5	314423	112	2144.6289528295
5	321290	113	2144.6289528295
5	328487	114	2144.6289528295
5	335486	115	2144.6289528295
5	342493	116	2144.6289528295
5	350181	117	2144.6289528295
5	357415	118	2144.6289528295
5	364740	119	2144.6289528295
5	372243	120	2144.6289528295
5	380003	121	2144.6289528295
5	387978	122	2144.6289528295
5	395959	123	2144.6289528295
5	404091	124	2144.6289528295
5	412433	125	2144.2699932546
5	420942	126	2142.4857455697
5	429555	127	2139.2206732375
5	438388	128	2135.1456005583
5	446830	129	2127.6213937358
5	455103	130	2121.1972783417
5	463890	131	2113.5118757858
5	472783	132	2104.3980562405
5	480753	133	2094.871461031
5	489620	134	2085.3396614584
5	498097	135	2075.7992478564
5	508794	136	2066.2736290911
5	517422	137	2056.7517783664
5	527028	138	2047.2292198468
5	535011	139	2037.3232207072
5	543845	140	2027.3337606738
5	552976	141	2017.3345940296
5	562382	142	2007.3358975587
5	571431	143	1997.3372399776
5	580903	144	1987.3454542734
5	590220	145	1977.3452545599
5	599808	146	1967.3487292578
5	609922	147	1957.3537312631
5	620191	148	1947.3456680587
5	629738	149	1937.3503656337
5	639986	150	1927.5720344801
5	649784	151	1917.8412129513
5	660727	152	1908.1145832438
5	671187	153	1898.3858543212
5	681519	154	1888.6571352127
5	692091	155	1878.9246799606
5	703052	156	1869.1906436282
5	714245	157	1859.4574483531
5	725797	158	1849.7279539253
5	736872	159	1840.0086296581
5	748535	160	1830.1288820809
5	760138	161	1820.0351822592
5	772735	162	1809.9270729964
5	784748	163	1799.9099186192
5	796658	164	1789.9619723014
5	808699	165	1780.00957504
5	821000	166	1770.0551113574
5	834363	167	1760.1103957033
5	850131	168	1750.1525451132
5	862544	169	1740.2040983975
5	877329	170	1730.2723616606
5	890747	171	1720.317877209
5	904524	172	1710.3669277725
5	918203	173	1700.4044309274
5	932308	174	1690.4544302413
5	945669	175	1680.5073063085
5	959417	176	1670.5681192514
5	974105	177	1660.6246956838
5	988176	178	1650.6798309119
5	1001518	179	1640.7199382862
5	1015774	180	1630.7676589885
5	1029418	181	1620.8266182886
5	1043816	182	1611.0024265479
5	1057743	183	1601.2115019802
5	1071755	184	1591.4078520709
5	1085025	185	1581.6215081235
5	1098896	186	1571.8190112773
5	1113316	187	1562.0212193353
5	1127762	188	1551.7862341414
5	1141713	189	1541.2564597804
5	1156030	190	1530.7299876267
5	1169860	191	1520.1973260231
5	1184851	192	1509.6571778036
5	1198888	193	1498.8499727841
5	1213474	194	1487.4645389828
6	98	4	1578.4506684253
6	160	5	1578.4506684253
6	222	6	1579.5537930429
6	284	7	1581.4165868293
6	394	8	1586.3131998433
6	506	9	1592.5493268352
6	618	10	1600.0762428036
6	794	11	1608.9662610246
6	1000	12	1618.8381252186
6	1177	13	1628.7265753681
6	1423	14	1638.6555796713
6	1720	15	1648.8046840783
6	1964	16	1660.6325348346
6	2291	17	1673.301875555
6	2694	18	1682.2138796467
6	3025	19	1691.5459182626
6	3449	20	1695.5099147679
6	3963	21	1697.3308411958
6	4483	22	1698.6335971011
6	5018	23	1699.8391930545
6	5667	24	1700.7320023719
6	6318	25	1701.2941834759
6	6990	26	1708.3978488175
6	7795	27	1718.9439634858
6	8599	28	1731.5308475178
6	9407	29	1745.2985167308
6	10359	30	1759.1189484736
6	11308	31	1773.0340486895
6	12395	32	1786.9318692749
6	13491	33	1800.8384161005
6	14577	34	1814.7242857991
6	15821	35	1828.6291121449
6	17046	36	1842.5221240856
6	18239	37	1856.4033655189
6	19588	38	1870.3206496174
6	20940	39	1884.2078763647
6	22264	40	1898.1023656018
6	23856	41	1911.9747862527
6	25507	42	1925.8646412995
6	28187	43	1939.7523164144
6	29889	44	1953.6524921264
6	32384	45	1967.5377511941
6	34080	46	1981.4268060932
6	36101	47	1995.3066574614
6	38147	48	2009.20583048
6	40188	49	2023.0931989681
6	42320	50	2036.973148467
6	44682	51	2050.86342174
6	46898	52	2064.7614132119
6	49268	53	2078.6673860522
6	51890	54	2092.57730933
6	54340	55	2105.6231031129
6	56961	56	2115.3520022649
6	59871	57	2120.4863727
6	62601	58	2120.5733974501
6	65467	59	2120.1035122564
6	68543	60	2119.6333873635
6	71555	61	2119.1615909887
6	74681	62	2118.6910757804
6	77926	63	2118.2204538891
6	80965	64	2117.7497990942
6	84061	65	2117.2802227521
6	87266	66	2116.8094340106
6	90387	67	2116.3391319392
6	93557	68	2115.8687473033
6	96826	69	2115.0741002411
6	99920	70	2113.1149313208
6	103281	71	2111.1585445367
6	106778	72	2106.8030983638
6	110131	73	2102.3223616686
6	113499	74	2097.6300104838
6	117254	75	2091.0550282849
6	120773	76	2086.0902330931
6	124426	77	2082.6490011467
6	128317	78	2080.5081668925
6	131697	79	2079.3424693728
6	135422	80	2078.7980284318
6	139450	81	2078.582050452
6	143155	82	2078.5031622536
6	147266	83	2078.4752351977
6	151324	84	2078.465204847
6	155341	85	2078.4616036816
6	159739	86	2078.4603095623
6	164281	87	2078.4598478284
6	168945	88	2078.4596827514
6	173602	89	2078.4596229205
6	178617	90	2078.4596013697
6	183745	91	2078.4595940737
6	188830	92	2078.4595940737
6	194415	93	2078.4595940737
6	199506	94	2078.4595940737
6	207369	95	2078.4595940737
6	213024	96	2078.4595940737
6	220149	97	2078.4595940737
6	225934	98	2078.4595940737
6	231705	99	2078.4595940737
6	237419	100	2078.4595940737
6	243729	101	2078.4595940737
6	249905	102	2078.4595940737
6	255821	103	2078.4595940737
6	262091	104	2078.4595940737
6	268389	105	2078.4595940737
6	274292	106	2078.4595940737
6	280900	107	2078.4595940737
6	287507	108	2078.4595940737
6	293818	109	2078.4595940737
6	300425	110	2078.4595940737
6	307622	111	2078.4595940737
6	314423	112	2078.4595940737
6	321290	113	2078.4595940737
6	328487	114	2078.4595940737
6	335486	115	2078.4595940737
6	342493	116	2078.4595940737
6	350181	117	2078.4595940737
6	357415	118	2078.4595940737
6	364740	119	2078.4595940737
6	372243	120	2078.4595940737
6	380003	121	2078.4595940737
6	387978	122	2078.4595940737
6	395959	123	2078.4595940737
6	404091	124	2078.4595940737
6	412433	125	2078.2482802393
6	420942	126	2077.1979217995
6	429555	127	2075.0640450483
6	438388	128	2071.1633009091
6	446830	129	2067.9547196664
6	455103	130	2061.0976872426
6	463890	131	2052.8943703212
6	472783	132	2043.166376303
6	480753	133	2032.9977899324
6	489620	134	2022.8236484798
6	498097	135	2012.6403125031
6	508794	136	2002.4727683784
6	517422	137	1992.3092462206
6	527028	138	1982.1449685693
6	535011	139	1972.3660578514
6	543845	140	1962.655592531
6	552976	141	1952.9356916938
6	562382	142	1943.2162478995
6	571431	143	1933.4968419084
6	580903	144	1923.7841158705
6	590220	145	1914.0632108171
6	599808	146	1904.3458775524
6	609922	147	1894.6300289398
6	620191	148	1884.9014800144
6	629738	149	1875.1853354732
6	639986	150	1865.2689973582
6	649784	151	1855.2975997431
6	660727	152	1845.3304975852
6	671187	153	1835.3612443116
6	681519	154	1825.3920010952
6	692091	155	1815.4189293664
6	703052	156	1805.4442374688
6	714245	157	1795.4704074208
6	725797	158	1785.5003697164
6	736872	159	1775.5407536114
6	748535	160	1765.727249871
6	760138	161	1756.1426621024
6	772735	162	1746.5443916833
6	784748	163	1736.81960354
6	796658	164	1727.0704500545
6	808699	165	1717.3169345716
6	821000	166	1707.5613939604
6	834363	167	1697.8154065795
6	850131	168	1688.056546743
6	862544	169	1678.3069028603
6	877329	170	1668.5736350352
6	890747	171	1658.8180740699
6	904524	172	1649.0659774793
6	918203	173	1639.3025642345
6	932308	174	1629.5513974354
6	945669	175	1619.8030499015
6	959417	176	1610.0624806387
6	974105	177	1600.3177595241
6	988176	178	1590.5716260057
6	1001518	179	1580.8107649405
6	1015774	180	1571.0573650626
6	1029418	181	1561.3149791993
6	1043816	182	1551.5724739814
6	1057743	183	1541.6890205508
6	1071755	184	1531.7927215165
6	1085025	185	1521.9138919944
6	1098896	186	1512.0187569214
6	1113316	187	1502.1283712154
6	1127762	188	1492.7078492092
6	1141713	189	1483.6006077752
6	1156030	190	1474.4962224336
6	1169860	191	1465.3864838136
6	1184851	192	1456.2702699909
6	1198888	193	1447.509511943
6	1213474	194	1439.4914562181
7	160	5	4.0332649588119
7	222	6	5.8265110515686
7	284	7	7.7852127750962
7	394	8	9.5658873894228
7	506	9	11.450149483434
7	618	10	13.391487500134
7	794	11	13.949883621705
7	1000	12	13.87602620427
7	1177	13	13.885232782268
7	1423	14	13.987373048679
7	1720	15	13.890608048609
7	1964	16	13.887004709987
7	2291	17	13.926980708602
7	2694	18	13.89086526999
7	3025	19	13.965056618985
7	3449	20	13.946692067499
7	3963	21	13.097137451398
7	4483	22	11.939132677032
7	5018	23	7.4783001788439
7	5667	24	7.8592269216425
7	6318	25	9.5749213322898
7	6990	26	11.610942506126
7	7795	27	13.581243869506
7	8599	28	13.973211987913
7	9407	29	13.918392209036
7	10359	30	13.936327037755
7	11308	31	13.911771836921
7	12395	32	13.967950365986
7	13491	33	13.969485151407
7	14577	34	13.946532071331
7	15821	35	13.8964421412
7	17046	36	13.895061244867
7	18239	37	13.901000304464
7	19588	38	13.980995893222
7	20940	39	13.957683203742
7	22264	40	13.876009866702
7	23856	41	13.940671876145
7	25507	42	13.876566110973
7	28187	43	13.981479525871
7	29889	44	13.945535122917
7	32384	45	13.911367351296
7	34080	46	13.935102713131
7	36101	47	13.918497436438
7	38147	48	13.876576944217
7	40188	49	13.993000027628
7	42320	50	13.945612282939
7	44682	51	13.880117890476
7	46898	52	13.871210378651
7	49268	53	13.965476403411
7	51890	54	13.989670229855
7	54340	55	13.951804798429
7	56961	56	13.892850009208
7	59871	57	13.958218119799
7	62601	58	13.933717581006
7	65467	59	13.920721456567
7	68543	60	13.973144179033
7	71555	61	13.870195115716
7	74681	62	13.903034238629
7	77926	63	13.924582225601
7	80965	64	13.971186688629
7	84061	65	13.973073767258
7	87266	66	13.961748166315
7	90387	67	13.979413188589
7	93557	68	13.96631005917
7	96826	69	13.945779746098
7	99920	70	13.935252245385
7	103281	71	13.914997072099
7	106778	72	13.98801359331
7	110131	73	13.88503026606
7	113499	74	11.494887676506
7	117254	75	8.2943477971366
7	120773	76	5.5638433959571
7	124426	77	3.1821582802834
7	128317	78	1.6386478292626
7	131697	79	0.70208360814287
7	135422	80	0.26166058532176
7	139450	81	0.093722617219707
7	143155	82	0.032411520644482
7	147266	83	0.011646020911594
7	151324	84	0.0042626235091631
7	155341	85	0.0015625548402935
7	159739	86	0.00056307346762587
7	164281	87	0.000196007666802
7	168945	88	7.2180983646805e-05
7	173602	89	2.5675382996829e-05
7	178617	90	1.0255638178932e-05
7	183745	91	0
7	188830	92	0
7	194415	93	0
7	199506	94	0
7	207369	95	0
7	213024	96	0
7	220149	97	0
7	225934	98	0
7	231705	99	0
7	237419	100	0
7	243729	101	0
7	249905	102	0
7	255821	103	0
7	262091	104	0
7	268389	105	0
7	274292	106	0
7	280900	107	0
7	287507	108	0
7	293818	109	0
7	300425	110	0
7	307622	111	0
7	314423	112	0
7	321290	113	0
7	328487	114	0
7	335486	115	0
7	342493	116	0
7	350181	117	0
7	357415	118	0
7	364740	119	0
7	372243	120	0
7	380003	121	0
7	387978	122	0
7	395959	123	0
7	404091	124	1.0113756021141
7	412433	125	2.9142607871646
7	420942	126	4.6509025917081
7	429555	127	6.4178280170787
7	438388	128	8.3659026519315
7	446830	129	10.216254104535
7	455103	130	12.17832551913
7	463890	131	13.910457805591
7	472783	132	13.959021286829
7	480753	133	13.983695241313
7	489620	134	13.969590955444
7	498097	135	13.95945166629
7	508794	136	13.951149677918
7	517422	137	13.912366695118
7	527028	138	13.872634291993
7	535011	139	13.933661869543
7	543845	140	13.91649455904
7	552976	141	13.966077942327
7	562382	142	13.882161922222
7	571431	143	13.900927204166
7	580903	144	13.960356983831
7	590220	145	13.980589384304
7	599808	146	13.948506816998
7	609922	147	13.972694553947
7	620191	148	13.919702919666
7	629738	149	13.913042479036
7	639986	150	13.910802942449
7	649784	151	13.953485710775
7	660727	152	13.921402319423
7	671187	153	13.980838277359
7	681519	154	13.91415124625
7	692091	155	13.913040971237
7	703052	156	13.948008816803
7	714245	157	13.98820747724
7	725797	158	13.937495805647
7	736872	159	13.98949433685
7	748535	160	13.950765158387
7	760138	161	13.956180241171
7	772735	162	13.914779536403
7	784748	163	13.953420044747
7	796658	164	13.935848819716
7	808699	165	13.997036629766
7	821000	166	13.944910566835
7	834363	167	13.939378094035
7	850131	168	13.933673705051
7	862544	169	13.927121802324
7	877329	170	13.920038456761
7	890747	171	13.917923776514
7	904524	172	13.969320180181
7	918203	173	13.896688025617
7	932308	174	13.938167087384
7	945669	175	13.902400945239
7	959417	176	13.967460071535
7	974105	177	13.979523398979
7	988176	178	13.939273965724
7	1001518	179	13.953957937539
7	1015774	180	13.932982838717
7	1029418	181	13.944456010337
7	1043816	182	13.955622119529
7	1057743	183	13.9366674236
7	1071755	184	13.948921188146
7	1085025	185	13.959717926751
7	1098896	186	13.89408574577
7	1113316	187	13.911475301697
7	1127762	188	13.893070268992
7	1141713	189	13.96729725206
7	1156030	190	13.950011306256
7	1169860	191	13.972682220924
7	1184851	192	13.975001950597
7	1198888	193	13.953437324194
7	1213474	194	13.875808309808
8	222	6	1.7932460927567
8	284	7	1.9587017235276
8	394	8	1.7806746143266
8	506	9	1.8842620940111
8	618	10	1.9413380167005
8	794	11	0.5583961215709
8	1000	12	-0.073857417434921
8	1177	13	0.0092065779981212
8	1423	14	0.10214026641101
8	1720	15	-0.096765000070445
8	1964	16	-0.0036033386224883
8	2291	17	0.039975998615846
8	2694	18	-0.036115438612178
8	3025	19	0.074191348995083
8	3449	20	-0.018364551486448
8	3963	21	-0.84955461610103
8	4483	22	-1.1580047743662
8	5018	23	-4.4608324981877
8	5667	24	0.38092674279862
8	6318	25	1.7156944106473
8	6990	26	2.0360211738362
8	7795	27	1.9703013633797
8	8599	28	0.39196811840698
8	9407	29	-0.054819778876846
8	10359	30	0.017934828719589
8	11308	31	-0.024555200834293
8	12395	32	0.056178529064637
8	13491	33	0.0015347854211001
8	14577	34	-0.022953080076258
8	15821	35	-0.050089930130635
8	17046	36	-0.0013808963331385
8	18239	37	0.0059390595974396
8	19588	38	0.079995588758029
8	20940	39	-0.023312689480372
8	22264	40	-0.081673337039538
8	23856	41	0.06466200944269
8	25507	42	-0.064105765172279
8	28187	43	0.10491341489833
8	29889	44	-0.035944402953609
8	32384	45	-0.034167771621142
8	34080	46	0.023735361834989
8	36101	47	-0.016605276693591
8	38147	48	-0.041920492220671
8	40188	49	0.11642308341106
8	42320	50	-0.047387744688894
8	44682	51	-0.065494392463005
8	46898	52	-0.0089075118256741
8	49268	53	0.094266024760437
8	51890	54	0.024193826443517
8	54340	55	-0.037865431425162
8	56961	56	-0.058954789221753
8	59871	57	0.065368110591081
8	62601	58	-0.024500538792926
8	65467	59	-0.012996124438942
8	68543	60	0.052422722466289
8	71555	61	-0.10294906331692
8	74681	62	0.032839122912847
8	77926	63	0.021547986972145
8	80965	64	0.046604463027325
8	84061	65	0.0018870786298066
8	87266	66	-0.011325600943529
8	90387	67	0.017665022274015
8	93557	68	-0.013103129419033
8	96826	69	-0.020530313071795
8	99920	70	-0.010527500712778
8	103281	71	-0.020255173286424
8	106778	72	0.073016521211247
8	110131	73	-0.10298332724953
8	113499	74	-2.3901425895544
8	117254	75	-3.2005398793695
8	120773	76	-2.7305044011795
8	124426	77	-2.3816851156737
8	128317	78	-1.5435104510208
8	131697	79	-0.93656422111977
8	135422	80	-0.44042302282111
8	139450	81	-0.16793796810205
8	143155	82	-0.061311096575225
8	147266	83	-0.020765499732887
8	151324	84	-0.0073833974024312
8	155341	85	-0.0027000686688696
8	159739	86	-0.00099948137266763
8	164281	87	-0.00036706580082386
8	168945	88	-0.0001238266831552
8	173602	89	-4.6505600649976e-05
8	178617	90	-1.5419744817896e-05
8	183745	91	-1.0255638178932e-05
8	188830	92	0
8	194415	93	0
8	199506	94	0
8	207369	95	0
8	213024	96	0
8	220149	97	0
8	225934	98	0
8	231705	99	0
8	237419	100	0
8	243729	101	0
8	249905	102	0
8	255821	103	0
8	262091	104	0
8	268389	105	0
8	274292	106	0
8	280900	107	0
8	287507	108	0
8	293818	109	0
8	300425	110	0
8	307622	111	0
8	314423	112	0
8	321290	113	0
8	328487	114	0
8	335486	115	0
8	342493	116	0
8	350181	117	0
8	357415	118	0
8	364740	119	0
8	372243	120	0
8	380003	121	0
8	387978	122	0
8	395959	123	0
8	404091	124	1.0113756021141
8	412433	125	1.9028851850505
8	420942	126	1.7366418045435
8	429555	127	1.7669254253705
8	438388	128	1.9480746348528
8	446830	129	1.8503514526039
8	455103	130	1.9620714145945
8	463890	131	1.7321322864608
8	472783	132	0.04856348123867
8	480753	133	0.024673954483587
8	489620	134	-0.014104285868816
8	498097	135	-0.01013928915374
8	508794	136	-0.0083019883721125
8	517422	137	-0.038782982800623
8	527028	138	-0.039732403124216
8	535011	139	0.061027577549684
8	543845	140	-0.017167310502845
8	552976	141	0.049583383286372
8	562382	142	-0.083916020104661
8	571431	143	0.01876528194407
8	580903	144	0.059429779665079
8	590220	145	0.020232400472741
8	599808	146	-0.032082567305769
8	609922	147	0.024187736948951
8	620191	148	-0.052991634281351
8	629738	149	-0.0066604406293482
8	639986	150	-0.0022395365871493
8	649784	151	0.042682768325323
8	660727	152	-0.032083391351627
8	671187	153	0.059435957935639
8	681519	154	-0.066687031108886
8	692091	155	-0.0011102750129055
8	703052	156	0.03496784556657
8	714245	157	0.040198660437019
8	725797	158	-0.0507116715936
8	736872	159	0.051998531203717
8	748535	160	-0.038729178463109
8	760138	161	0.0054150827834398
8	772735	162	-0.041400704768021
8	784748	163	0.038640508344397
8	796658	164	-0.017571225031279
8	808699	165	0.061187810050324
8	821000	166	-0.052126062931494
8	834363	167	-0.0055324727995316
8	850131	168	-0.0057043889840127
8	862544	169	-0.0065519027272245
8	877329	170	-0.0070833455631512
8	890747	171	-0.00211468024645
8	904524	172	0.051396403666587
8	918203	173	-0.072632154563909
8	932308	174	0.041479061767459
8	945669	175	-0.03576614214573
8	959417	176	0.065059126296546
8	974105	177	0.01206332744332
8	988176	178	-0.040249433254358
8	1001518	179	0.014683971814812
8	1015774	180	-0.0209750988218
8	1029418	181	0.011473171620166
8	1043816	182	0.011166109191253
8	1057743	183	-0.018954695928842
8	1071755	184	0.012253764546477
8	1085025	185	0.010796738604549
8	1098896	186	-0.065632180981337
8	1113316	187	0.017389555927366
8	1127762	188	-0.018405032705051
8	1141713	189	0.074226983068511
8	1156030	190	-0.017285945804325
8	1169860	191	0.022670914668124
8	1184851	192	0.0023197296727453
8	1198888	193	-0.021564626402688
8	1213474	194	-0.077629014386329
9	222	6	3.9274001426868
9	284	7	5.2041356246368
9	394	8	5.7574507674447
9	506	9	7.0006276784153
9	618	10	8.2432295261252
9	794	11	3.9110016848773
9	1000	12	1.7792042638201
9	1177	13	2.0579365757541
9	1423	14	2.3818636967155
9	1720	15	1.7037407999188
9	1964	16	2.0152488537881
9	2291	17	2.1655550639215
9	2694	18	1.906797412239
9	3025	19	2.2849654495652
9	3449	20	1.9716653983805
9	3963	21	0.973
9	4483	22	0.973
9	5018	23	0.973
9	5667	24	2.2554772362628
9	6318	25	5.6120472675651
9	6990	26	7.5119842129131
9	7795	27	8.4455276517466
9	8599	28	3.3560730035355
9	9407	29	1.8466200733259
9	10359	30	2.0925700304313
9	11308	31	1.9475020817425
9	12395	32	2.2246770938857
9	13491	33	2.0408887702901
9	14577	34	1.9562271949113
9	15821	35	1.8605150777624
9	17046	36	2.02350365424
9	18239	37	2.0486289832362
9	19588	38	2.306438746801
9	20940	39	1.9560953650759
9	22264	40	1.7530655343205
9	23856	41	2.2500217413757
9	25507	42	1.8118614966749
9	28187	43	2.3904591274519
9	29889	44	1.9124686817716
9	32384	45	1.9152357837185
9	34080	46	2.1119200596064
9	36101	47	1.9748145253136
9	38147	48	1.8860556409821
9	40188	49	2.4307450066284
9	42320	50	1.8740160521768
9	44682	51	1.8075224423725
9	46898	52	1.9959258270761
9	49268	53	2.3525808259163
9	51890	54	2.1193583924862
9	54340	55	1.9065956504161
9	56961	56	1.8305118457369
9	59871	57	2.2544630998412
9	62601	58	1.9497933768092
9	65467	59	1.9871406572462
9	68543	60	2.2126311154734
9	71555	61	1.6814706013276
9	74681	62	2.1389711440079
9	77926	63	2.1034461790283
9	80965	64	2.1928156440255
9	84061	65	2.0424436939447
9	87266	66	1.9968220868408
9	90387	67	2.0962520735246
9	93557	68	1.9912932769184
9	96826	69	1.9642972700964
9	99920	70	1.9968679223948
9	103281	71	1.9622318144289
9	106778	72	2.283765710728
9	110131	73	1.6824953209645
9	113499	74	0.973
9	117254	75	0.973
9	120773	76	0.973
9	124426	77	0.973
9	128317	78	0.973
9	131697	79	0.973
9	135422	80	0.973
9	139450	81	0.973
9	143155	82	1.111084623106
9	147266	83	1.1105035218527
9	151324	84	1.1101980440582
9	155341	85	1.1100743608656
9	159739	86	1.1100270270338
9	164281	87	1.1100094380704
9	168945	88	1.1100034798566
9	173602	89	1.1100012382927
9	178617	90	1.1100004946939
9	183745	91	0.973
9	188830	92	0.973
9	194415	93	0.973
9	199506	94	0.973
9	207369	95	0.973
9	213024	96	0.973
9	220149	97	0.973
9	225934	98	0.973
9	231705	99	0.973
9	237419	100	0.973
9	243729	101	0.973
9	249905	102	0.973
9	255821	103	0.973
9	262091	104	0.973
9	268389	105	0.973
9	274292	106	0.973
9	280900	107	0.973
9	287507	108	0.973
9	293818	109	0.973
9	300425	110	0.973
9	307622	111	0.973
9	314423	112	0.973
9	321290	113	0.973
9	328487	114	0.973
9	335486	115	0.973
9	342493	116	0.973
9	350181	117	0.973
9	357415	118	0.973
9	364740	119	0.973
9	372243	120	0.973
9	380003	121	0.973
9	387978	122	0.973
9	395959	123	0.973
9	404091	124	1.4053985531818
9	412433	125	2.5893367567043
9	420942	126	3.2901985511787
9	429555	127	4.1769129952291
9	438388	128	5.4953344766794
9	446830	129	6.2571169211436
9	455103	130	7.6229693591896
9	463890	131	7.8365308438039
9	472783	132	2.1980250079162
9	480753	133	2.1203294490281
9	489620	134	1.9882480212245
9	498097	135	2.0005845531267
9	508794	136	2.0059336952318
9	517422	137	1.8998551138934
9	527028	138	1.8930103874441
9	535011	139	2.236992505347
9	543845	140	1.9727334151556
9	552976	141	2.2022620831991
9	562382	142	1.7460665189129
9	571431	143	2.0915908658464
9	580903	144	2.234736285526
9	590220	145	2.1050278516618
9	599808	146	1.9257284017669
9	609922	147	2.1175003787213
9	620191	148	1.8528691430414
9	629738	149	2.00762592157
9	639986	150	2.0222224543985
9	649784	151	2.1776187719989
9	660727	152	1.923169050549
9	671187	153	2.2371463160373
9	681519	154	1.8064493213701
9	692091	155	2.0262357136365
9	703052	156	2.1510693372728
9	714245	157	2.1731547951613
9	725797	158	1.8621151439565
9	736872	159	2.2130820178535
9	748535	160	1.9035948721963
9	760138	161	2.0525742909705
9	772735	162	1.89129997586
9	784748	163	2.1640181778755
9	796658	164	1.9732706682634
9	808699	165	2.2449477336244
9	821000	166	1.8580282192035
9	834363	167	2.0140588416095
9	850131	168	2.0129069183592
9	862544	169	2.0094028744282
9	877329	170	2.0069089419522
9	890747	171	2.0233629932418
9	904524	172	2.2087362604519
9	918203	173	1.7850409257604
9	932308	174	2.1718531953606
9	945669	175	1.9090411842561
9	959417	176	2.2545137868291
9	974105	177	2.0773913534429
9	988176	178	1.8974214073413
9	1001518	179	2.0835146303389
9	1015774	180	1.9615606346167
9	1029418	181	2.0717199770547
9	1043816	182	2.0718589684893
9	1057743	183	1.9687040381027
9	1071755	184	2.0748125343914
9	1085025	185	2.0710460375916
9	1098896	186	1.8082609291051
9	1113316	187	2.088100367908
9	1127762	188	1.9663010322065
9	1141713	189	2.2853546700907
9	1156030	190	1.9756160184628
9	1169860	191	2.112391272333
9	1184851	192	2.044099092994
9	1198888	193	1.9615635783094
9	1213474	194	1.7665735206712
10	284	7	2414.8848622198
10	394	8	2414.8848622198
10	506	9	2412.0691307599
10	618	10	2407.3819784434
10	794	11	2402.4639103656
10	1000	12	2396.2016479742
10	1177	13	2388.5021761758
10	1423	14	2379.5347220144
10	1720	15	2369.7521497252
10	1964	16	2359.9648396304
10	2291	17	2350.1637192596
10	2694	18	2340.717056727
10	3025	19	2334.4889366638
10	3449	20	2338.0188398167
10	3963	21	2348.6970945761
10	4483	22	2359.0578910074
10	5018	23	2372.1753142256
10	5667	24	2385.9847009928
10	6318	25	2399.0560799135
10	6990	26	2411.469456295
10	7795	27	2420.8240344936
10	8599	28	2428.2477936834
10	9407	29	2431.5063396557
10	10359	30	2433.2107402181
10	11308	31	2435.1926814455
10	12395	32	2437.2840981595
10	13491	33	2438.6698400828
10	14577	34	2439.5427993742
10	15821	35	2440.5528106833
10	17046	36	2441.5639940111
10	18239	37	2442.5734816189
10	19588	38	2443.5847831516
10	20940	39	2444.5958494489
10	22264	40	2445.6069262425
10	23856	41	2446.6175507512
10	25507	42	2447.6276141097
10	28187	43	2448.6373800058
10	29889	44	2449.6477247799
10	32384	45	2450.6586223125
10	34080	46	2449.5478603364
10	36101	47	2448.4346564806
10	38147	48	2447.323144377
10	40188	49	2446.2102780569
10	42320	50	2445.0965554657
10	44682	51	2443.9836238977
10	46898	52	2442.8714042663
10	49268	53	2441.7587277495
10	51890	54	2440.6456500359
10	54340	55	2439.6812818057
10	56961	56	2438.7411318941
10	59871	57	2437.8184508061
10	62601	58	2432.6304281257
10	65467	59	2422.1025089569
10	68543	60	2408.9540273536
10	71555	61	2395.0083187317
10	74681	62	2381.1018187457
10	77926	63	2367.1632125205
10	80965	64	2353.2520411179
10	84061	65	2339.3226963226
10	87266	66	2325.3846832755
10	90387	67	2311.4473189955
10	93557	68	2297.5062605251
10	96826	69	2283.5882297854
10	99920	70	2269.6366102415
10	103281	71	2255.7090687543
10	106778	72	2241.8199724677
10	110131	73	2228.0126191697
10	113499	74	2214.2888088035
10	117254	75	2201.1056966537
10	120773	76	2187.9038860666
10	124426	77	2175.8447859838
10	128317	78	2166.8833721072
10	131697	79	2160.0407069563
10	135422	80	2155.1800851164
10	139450	81	2152.0670689712
10	143155	82	2150.3390433855
10	147266	83	2149.4955074823
10	151324	84	2149.1494064592
10	155341	85	2149.0180964483
10	159739	86	2148.9684746807
10	164281	87	2148.9498284768
10	168945	88	2148.9428167902
10	173602	89	2148.9401952769
10	178617	90	2148.939218446
10	183745	91	2148.9388496825
10	188830	92	2148.9387155215
10	194415	93	2148.9386669514
10	199506	94	2148.9386495074
10	207369	95	2148.9386477008
10	213024	96	2148.9386477008
10	220149	97	2148.9386477008
10	225934	98	2148.9386477008
10	231705	99	2148.9386477008
10	237419	100	2148.9386477008
10	243729	101	2148.9386477008
10	249905	102	2148.9386477008
10	255821	103	2148.9386477008
10	262091	104	2148.9386477008
10	268389	105	2148.9386477008
10	274292	106	2148.9386477008
10	280900	107	2148.9386477008
10	287507	108	2148.9386477008
10	293818	109	2148.9386477008
10	300425	110	2148.9386477008
10	307622	111	2148.9386477008
10	314423	112	2148.9386477008
10	321290	113	2148.9386477008
10	328487	114	2148.9386477008
10	335486	115	2148.9386477008
10	342493	116	2148.9386477008
10	350181	117	2148.9386477008
10	357415	118	2148.9386477008
10	364740	119	2148.9386477008
10	372243	120	2148.9386477008
10	380003	121	2148.9386477008
10	387978	122	2148.9386477008
10	395959	123	2148.9386477008
10	404091	124	2148.9386477008
10	412433	125	2148.8671487751
10	420942	126	2148.0079327405
10	429555	127	2145.7791632444
10	438388	128	2142.0683770464
10	446830	129	2137.0573788788
10	455103	130	2131.4485080778
10	463890	131	2124.6344401109
10	472783	132	2116.3863725356
10	480753	133	2106.9850978114
10	489620	134	2097.4653659279
10	498097	135	2087.9519984872
10	508794	136	2078.4319389261
10	517422	137	2068.9078815613
10	527028	138	2059.374470353
10	535011	139	2049.8462706456
10	543845	140	2039.9508486383
10	552976	141	2029.959820337
10	562382	142	2019.9566231037
10	571431	143	2009.9788494435
10	580903	144	1999.9911521509
10	590220	145	1990.0009861174
10	599808	146	1980.0108325768
10	609922	147	1970.0176993236
10	620191	148	1960.0316262281
10	629738	149	1950.0415973668
10	639986	150	1940.0518876762
10	649784	151	1930.2645750964
10	660727	152	1920.5177652857
10	671187	153	1910.7968246879
10	681519	154	1901.0597268877
10	692091	155	1891.3356109365
10	703052	156	1881.5795039817
10	714245	157	1871.8537162713
10	725797	158	1862.1193202424
10	736872	159	1852.3855716488
10	748535	160	1842.6579003676
10	760138	161	1832.7934855153
10	772735	162	1822.6828087029
10	784748	163	1812.577287857
10	796658	164	1802.5792395137
10	808699	165	1792.624625596
10	821000	166	1782.6666641673
10	834363	167	1772.7155663519
10	850131	168	1762.7483238298
10	862544	169	1752.7957225956
10	877329	170	1742.8489103195
10	890747	171	1732.8864287379
10	904524	172	1722.9410380053
10	918203	173	1712.9822583838
10	932308	174	1703.0229945758
10	945669	175	1693.0716465353
10	959417	176	1683.1240197027
10	974105	177	1673.1650653948
10	988176	178	1663.2072419809
10	1001518	179	1653.2558553544
10	1015774	180	1643.3054859581
10	1029418	181	1633.3650521673
10	1043816	182	1623.4035771193
10	1057743	183	1613.5905930224
10	1071755	184	1603.7778151158
10	1085025	185	1593.9557922266
10	1098896	186	1584.138493691
10	1113316	187	1574.3251641603
10	1127762	188	1564.4973451832
10	1141713	189	1554.2388346726
10	1156030	190	1543.7060333362
10	1169860	191	1533.1364379344
10	1184851	192	1522.5880959234
10	1198888	193	1512.0352926825
10	1213474	194	1501.2446566073
11	284	7	1578.4476927174
11	394	8	1578.4476927174
11	506	9	1579.4816146148
11	618	10	1581.3305685576
[...]
531	4778444	337	1732.5018364852
531	4816685	338	1741.8689065119
531	4855059	339	1751.2442597011
531	4893747	340	1760.5166824255
531	4932487	341	1769.5359143661
531	4971990	342	1778.3431448899
531	5010954	343	1786.9794676779
532	4077494	317	3.8987765728693
532	4113683	318	5.8338639237137
532	4145331	319	7.7360647708095
532	4180824	320	9.5783511612855
532	4212890	321	11.599142482491
532	4246593	322	13.412363012502
532	4279682	323	13.563327016264
532	4313125	324	13.560639375255
532	4346214	325	13.563781467823
532	4380416	326	13.549217295476
532	4415488	327	13.610012323502
532	4449754	328	13.556709290237
532	4484548	329	13.604679273402
532	4520641	330	13.542454856615
532	4555531	331	13.548722736842
532	4592146	332	13.571002386547
532	4628776	333	13.560127169902
532	4665429	334	13.593867863875
532	4702248	335	13.554407199716
532	4739790	336	13.515206911922
532	4778444	337	13.560278827906
532	4816685	338	13.509398556743
532	4855059	339	13.249876428411
532	4893747	340	12.854532304537
532	4932487	341	12.625067494815
532	4971990	342	12.396821466642
532	5010954	343	12.313720100831
533	4113683	318	1.9350873508444
533	4145331	319	1.9022008470958
533	4180824	320	1.8422863904759
533	4212890	321	2.0207913212059
533	4246593	322	1.8132205300103
533	4279682	323	0.15096400376272
533	4313125	324	-0.0026876410096897
533	4346214	325	0.0031420925678702
533	4380416	326	-0.014564172346146
533	4415488	327	0.060795028025751
533	4449754	328	-0.05330303326482
533	4484548	329	0.04796998316422
533	4520641	330	-0.062224416786339
533	4555531	331	0.006267880226952
533	4592146	332	0.02227964970516
533	4628776	333	-0.010875216645655
533	4665429	334	0.033740693973378
533	4702248	335	-0.039460664158687
533	4739790	336	-0.039200287794229
533	4778444	337	0.045071915984153
533	4816685	338	-0.050880271163768
533	4855059	339	-0.25952212833109
533	4893747	340	-0.39534412387412
533	4932487	341	-0.22946480972218
533	4971990	342	-0.2282460281727
533	5010954	343	-0.083101365811206
534	4113683	318	4.1304251245485
534	4145331	319	5.0724044468833
534	4180824	320	5.9059407986863
534	4212890	321	7.4626110792301
534	4246593	322	7.8409182133372
534	4279682	323	2.4882605104876
534	4313125	324	1.985744973736
534	4346214	325	2.0051113293656
534	4380416	326	1.9458385919776
534	4415488	327	2.198844084439
534	4449754	328	1.8199887653009
534	4484548	329	2.1561851872351
534	4520641	330	1.7896419794362
534	4555531	331	2.0138130063102
534	4592146	332	2.0684250160537
534	4628776	333	1.9589375736154
534	4665429	334	2.1083676421386
534	4702248	335	1.8650077027357
534	4739790	336	1.8623474067196
534	4778444	337	2.1417889716077
534	4816685	338	1.823800898856
534	4855059	339	1.1353487584227
534	4893747	340	0.973
534	4932487	341	1.2067517718776
534	4971990	342	1.2021034585446
534	5010954	343	1.6298824082616
535	4145331	319	2414.8816862587
535	4180824	320	2414.8816862587
535	4212890	321	2411.8322404894
535	4246593	322	2407.0891278639
535	4279682	323	2401.9434035355
535	4313125	324	2395.5470014601
535	4346214	325	2387.8348303201
535	4380416	326	2378.8226440684
535	4415488	327	2369.3640798683
535	4449754	328	2359.929001224
535	4484548	329	2350.4743524661
535	4520641	330	2341.2915637473
535	4555531	331	2334.7201270551
535	4592146	332	2326.4259212146
535	4628776	333	2313.476139805
535	4665429	334	2302.8669671799
535	4702248	335	2293.1465349135
535	4739790	336	2283.4330538535
535	4778444	337	2273.7074045512
535	4816685	338	2263.9938049654
535	4855059	339	2254.2959051681
535	4893747	340	2244.5801592499
535	4932487	341	2234.8712752018
535	4971990	342	2225.1499405043
535	5010954	343	2215.4278692675
536	4145331	319	1578.448858914
536	4180824	320	1578.448858914
536	4212890	321	1579.5685994858
536	4246593	322	1581.6271858495
536	4279682	323	1586.8390956912
536	4313125	324	1593.317769791
536	4346214	325	1601.1291366853
536	4380416	326	1610.2572397916
536	4415488	327	1619.8374622632
536	4449754	328	1629.3938971022
536	4484548	329	1638.9701537713
536	4520641	330	1648.7410720903
536	4555531	331	1660.0931154229
536	4592146	332	1666.6668139724
536	4628776	333	1669.1332894806
536	4665429	334	1676.9463763731
536	4702248	335	1686.2466403283
536	4739790	336	1695.5402535452
536	4778444	337	1704.845509029
536	4816685	338	1714.1357506691
536	4855059	339	1723.4099583272
536	4893747	340	1732.6992873084
536	4932487	341	1741.9884092109
536	4971990	342	1751.2909013964
536	5010954	343	1760.5934373373
537	4180824	320	4.1195743788004
537	4212890	321	6.1179753308644
537	4246593	322	8.1838887574261
537	4279682	323	9.9171148797351
537	4313125	324	11.769446218206
537	4346214	325	13.448778911352
537	4380416	326	13.428658679517
537	4415488	327	13.407573374603
537	4449754	328	13.415455270815
537	4484548	329	13.506429537574
537	4520641	330	13.460101389063
537	4555531	331	13.402341505771
537	4592146	332	13.461965515148
537	4628776	333	13.495598747912
537	4665429	334	13.483436450851
537	4702248	335	13.497282742355
537	4739790	336	13.507740484809
537	4778444	337	13.428624960256
537	4816685	338	13.394729596523
537	4855059	339	13.419865917007
537	4893747	340	13.491002884421
537	4932487	341	13.402262239188
537	4971990	342	13.419549764074
537	5010954	343	13.484007549074
538	4212890	321	1.998400952064
538	4246593	322	2.0659134265617
538	4279682	323	1.733226122309
538	4313125	324	1.8523313384713
538	4346214	325	1.6793326931454
538	4380416	326	-0.02012023183517
538	4415488	327	-0.021085304913578
538	4449754	328	0.0078818962117655
538	4484548	329	0.090974266759586
538	4520641	330	-0.046328148511238
538	4555531	331	-0.05775988329202
538	4592146	332	0.059624009376858
538	4628776	333	0.033633232763968
538	4665429	334	-0.012162297060714
538	4702248	335	0.013846291503869
538	4739790	336	0.010457742454019
538	4778444	337	-0.079115524552762
538	4816685	338	-0.033895363733173
538	4855059	339	0.02513632048387
538	4893747	340	0.071136967414059
538	4932487	341	-0.08874064523261
538	4971990	342	0.017287524885033
538	5010954	343	0.064457785000558
539	4212890	321	4.3727917154183
539	4246593	322	5.6300624791861
539	4279682	323	5.820955656719
539	4313125	324	7.0823838569751
539	4346214	325	7.4264572625779
539	4380416	326	1.9163856296867
539	4415488	327	1.9113002483078
539	4449754	328	2.0056878911421
539	4484548	329	2.2852874897423
539	4520641	330	1.834309562886
539	4555531	331	1.7923563256553
539	4592146	332	2.1782164412966
539	4628776	333	2.0974821918014
539	4665429	334	1.9473706091799
539	4702248	335	2.0332982323676
539	4739790	336	2.0233350432027
539	4778444	337	1.7254560972944
539	4816685	338	1.8687541474306
539	4855059	339	2.0619331498021
539	4893747	340	2.2189284179748
539	4932487	341	1.6922834960544
539	4971990	342	2.0365163244026
539	5010954	343	2.1964133899478
540	4246593	322	2414.8482292013
540	4279682	323	2414.8482292013
540	4313125	324	2411.8661611836
540	4346214	325	2407.1996277095
540	4380416	326	2402.2926126652
540	4415488	327	2395.9974821322
540	4449754	328	2388.4374961966
540	4484548	329	2379.5697834369
540	4520641	330	2369.8064109795
540	4555531	331	2360.0286720939
540	4592146	332	2350.2480587631
540	4628776	333	2340.7960442706
540	4665429	334	2334.5083574157
540	4702248	335	2337.5462279739
540	4739790	336	2345.6470420276
540	4778444	337	2351.1386087469
540	4816685	338	2354.6545213799
540	4855059	339	2356.6126687333
540	4893747	340	2357.5573547422
540	4932487	341	2357.9549714277
540	4971990	342	2358.1624590477
540	5010954	343	2358.6773006395
541	4246593	322	1578.4611441707
541	4279682	323	1578.4611441707
541	4313125	324	1579.5561439833
541	4346214	325	1581.515264729
541	4380416	326	1586.4853949519
541	4415488	327	1592.8614949305
541	4449754	328	1600.5187191796
541	4484548	329	1609.5004905406
541	4520641	330	1619.3894417854
541	4555531	331	1629.2929442422
541	4592146	332	1639.1993581168
541	4628776	333	1649.3754141442
541	4665429	334	1661.3684743708
541	4702248	335	1673.4629676081
541	4739790	336	1680.0451171966
541	4778444	337	1684.997549613
541	4816685	338	1688.1682876889
541	4855059	339	1689.9341940181
541	4893747	340	1690.7861355226
541	4932487	341	1691.1447162088
541	4971990	342	1691.3318337416
541	5010954	343	1691.7961307848
542	4279682	323	4.0793542533879
542	4313125	324	5.9096519819367
542	4346214	325	7.9210764485736
542	4380416	326	9.7880082398373
542	4415488	327	11.65050486875
542	4449754	328	13.423347835047
542	4484548	329	13.967175390131
542	4520641	330	13.886538652352
542	4555531	331	13.874270979788
542	4592146	332	13.925538612434
542	4628776	333	13.973502259934
542	4665429	334	12.217698528163
542	4702248	335	8.980249967049
542	4739790	336	6.086538882927
542	4778444	337	3.6833346419778
542	4816685	338	1.9478835926023
542	4855059	339	0.84236155366231
542	4893747	340	0.33120884641882
542	4932487	341	0.34247145192426
542	4971990	342	0.9613818175054
542	5010954	343	1.3391152674858
543	4313125	324	1.8302977285488
543	4346214	325	2.011424466637
543	4380416	326	1.8669317912636
543	4415488	327	1.8624966289126
543	4449754	328	1.7728429662972
543	4484548	329	0.54382755508425
543	4520641	330	-0.080636737779715
543	4555531	331	-0.012267672563903
543	4592146	332	0.051267632646486
543	4628776	333	0.047963647500147
543	4665429	334	-1.7558037317717
543	4702248	335	-3.2374485611136
543	4739790	336	-2.893711084122
543	4778444	337	-2.4032042409492
543	4816685	338	-1.7354510493755
543	4855059	339	-1.10552203894
543	4893747	340	-0.51115270724348
543	4932487	341	0.011262605505436
543	4971990	342	0.61891036558115
543	5010954	343	0.37773344998043
544	4313125	324	4.0209054062767
544	4346214	325	5.3777925521869
544	4380416	326	6.0727250408128
544	4415488	327	7.0475710701678
544	4449754	328	7.7161739263031
544	4484548	329	3.8660574692625
544	4520641	330	1.7573975947934
544	4555531	331	1.9849947726087
544	4592146	332	2.2032894364936
544	4628776	333	2.1976558462273
544	4665429	334	0.973
544	4702248	335	0.973
544	4739790	336	0.973
544	4778444	337	0.973
544	4816685	338	0.973
544	4855059	339	0.973
544	4893747	340	0.973
544	4932487	341	1.1274540995824
544	4971990	342	1.2998563537189
544	5010954	343	1.2967254535285
545	4346214	325	2414.8818840446
545	4380416	326	2414.8818840446
545	4415488	327	2411.9557425439
545	4449754	328	2407.2665588572
545	4484548	329	2402.2771343485
545	4520641	330	2395.9693671251
545	4555531	331	2388.2594117898
545	4592146	332	2379.0676612386
545	4628776	333	2369.2789589822
545	4665429	334	2359.491877509
545	4702248	335	2349.7028921152
545	4739790	336	2340.3037445872
545	4778444	337	2334.4240970488
545	4816685	338	2336.3205856772
545	4855059	339	2343.1082427101
545	4893747	340	2347.9677113241
545	4932487	341	2351.1037232786
545	4971990	342	2352.9175036498
545	5010954	343	2353.9844414161
546	4346214	325	1578.4487862876
546	4380416	326	1578.4487862876
546	4415488	327	1579.5232501756
546	4449754	328	1581.4474726971
546	4484548	329	1586.5010723546
546	4520641	330	1592.8899715599
546	4555531	331	1600.6990941493
546	4592146	332	1610.0090711527
546	4628776	333	1619.9236779939
546	4665429	334	1629.836643205
546	4702248	335	1639.7515368257
546	4739790	336	1650.0056343609
546	4778444	337	1661.8759229975
546	4816685	338	1672.4275538065
546	4855059	339	1677.9546289928
546	4893747	340	1682.1379548945
546	4932487	341	1684.9660890233
546	4971990	342	1686.6018015929
546	5010954	343	1687.5639927937
547	4380416	326	3.9613265484648
547	4415488	327	6.0483833907459
547	4449754	328	7.9329862447742
547	4484548	329	9.8325326673694
547	4520641	330	11.918545979204
547	4555531	331	13.964857857994
547	4592146	332	13.961650923213
547	4628776	333	13.880992797683
547	4665429	334	13.997309782277
547	4702248	335	13.991976388393
547	4739790	336	12.756238763415
547	4778444	337	10.151297513648
547	4816685	338	7.6741459154823
547	4855059	339	5.3950894673182
547	4893747	340	3.2726494236261
547	4932487	341	1.8540207598308
547	4971990	342	1.2672372880634
547	5010954	343	1.2677348344082
548	4415488	327	2.087056842281
548	4449754	328	1.8846028540283
548	4484548	329	1.8995464225952
548	4520641	330	2.0860133118345
548	4555531	331	2.0463118787901
548	4592146	332	-0.0032069347805788
548	4628776	333	-0.080658125530464
548	4665429	334	0.11631698459387
548	4702248	335	-0.0053333938843565
548	4739790	336	-1.2357376249774
548	4778444	337	-2.6049412497667
548	4816685	338	-2.4771515981662
548	4855059	339	-2.2790564481641
548	4893747	340	-2.122440043692
548	4932487	341	-1.4186286637954
548	4971990	342	-0.58678347176736
548	5010954	343	0.00049754634480448
549	4415488	327	4.4644345787025
549	4449754	328	5.1418839387458
549	4484548	329	6.1733783054936
549	4520641	330	7.8331539193315
549	4555531	331	8.9221738384496
549	4592146	332	2.0241297538765
549	4628776	333	1.7568700263101
549	4665429	334	2.4309498621252
549	4702248	335	2.0200404467922
549	4739790	336	0.973
549	4778444	337	0.973
549	4816685	338	0.973
549	4855059	339	0.973
549	4893747	340	0.973
549	4932487	341	0.973
549	4971990	342	0.973
549	5010954	343	1.1714957574261
550	4449754	328	2414.8450145429
550	4484548	329	2414.8450145429
550	4520641	330	2411.8539991184
550	4555531	331	2407.1848236372
550	4592146	332	2402.1469584311
550	4628776	333	2395.7189952119
550	4665429	334	2387.8984327462
550	4702248	335	2378.6574657265
550	4739790	336	2368.8772286081
550	4778444	337	2359.0956146058
550	4816685	338	2349.30871684
550	4855059	339	2339.9569000141
550	4893747	340	2334.5059280347
550	4932487	341	2335.1692094967
550	4971990	342	2341.0025585926
550	5010954	343	2345.3473644429
551	4449754	328	1578.4623245765
551	4484548	329	1578.4623245765
551	4520641	330	1579.5606098305
551	4555531	331	1581.5302592143
551	4592146	332	1586.6329226252
551	4628776	333	1593.1435638154
551	4665429	334	1601.0647161901
551	4702248	335	1610.4245426962
551	4739790	336	1620.3305755183
551	4778444	337	1630.2380029345
551	4816685	338	1640.1507820757
551	4855059	339	1650.4496493982
551	4893747	340	1661.3831050452
551	4932487	341	1671.1876102276
551	4971990	342	1676.2541624373
551	5010954	343	1679.7748604445
552	4484548	329	4.0551885790278
552	4520641	330	6.0667755393956
552	4555531	331	8.0514245521922
552	4592146	332	10.057639999298
552	4628776	333	11.989174055817
552	4665429	334	13.977770002683
552	4702248	335	13.877347877571
552	4739790	336	13.942929560569
552	4778444	337	13.890733753816
552	4816685	338	13.978530618801
552	4855059	339	11.441802121525
552	4893747	340	8.9745610805679
552	4932487	341	6.7759468840495
552	4971990	342	4.7275803448292
552	5010954	343	3.1701122638133
553	4520641	330	2.0115869603679
553	4555531	331	1.9846490127966
553	4592146	332	2.0062154471059
553	4628776	333	1.9315340565192
553	4665429	334	1.9885959468659
553	4702248	335	-0.1004221251118
553	4739790	336	0.065581682997291
553	4778444	337	-0.052195806752424
553	4816685	338	0.087796864984556
553	4855059	339	-2.5367284972756
553	4893747	340	-2.4672410409573
553	4932487	341	-2.1986141965183
553	4971990	342	-2.0483665392203
553	5010954	343	-1.5574680810159
554	4520641	330	4.3644157687579
554	4555531	331	5.3976163679325
554	4592146	332	6.552014121787
554	4628776	333	7.428513830071
554	4665429	334	8.7354386440443
554	4702248	335	1.690470935378
554	4739790	336	2.253377781382
554	4778444	337	1.8529534646904
554	4816685	338	2.3324199114834
554	4855059	339	0.973
554	4893747	340	0.973
554	4932487	341	0.973
554	4971990	342	0.973
554	5010954	343	0.973
555	4555531	331	2414.8560355731
555	4592146	332	2414.8560355731
555	4628776	333	2411.7899417675
555	4665429	334	2407.0217785852
555	4702248	335	2401.9606977863
555	4739790	336	2395.5823395718
555	4778444	337	2387.8154777092
555	4816685	338	2378.7084017912
555	4855059	339	2368.9291241213
555	4893747	340	2359.151523275
555	4932487	341	2349.3757596532
555	4971990	342	2340.1541347422
555	5010954	343	2334.710448247
556	4555531	331	1578.4582777116
556	4592146	332	1578.4582777116
556	4628776	333	1579.5841313554
556	4665429	334	1581.6954013901
556	4702248	335	1586.8215789981
556	4739790	336	1593.2819771525
556	4778444	337	1601.1487382147
556	4816685	338	1610.3729514796
556	4855059	339	1620.2780125132
556	4893747	340	1630.1813751552
556	4932487	341	1640.0828769421
556	4971990	342	1650.1971582491
556	5010954	343	1660.151404961
557	4592146	332	4.1734317055849
557	4628776	333	6.1555158319642
557	4665429	334	8.0590214247784
557	4702248	335	9.9983523147289
557	4739790	336	11.855269208505
557	4778444	337	13.749920170597
557	4816685	338	13.878632529493
557	4855059	339	13.921781638943
557	4893747	340	13.963062683172
557	4932487	341	12.96923053573
557	4971990	342	10.593129677422
557	5010954	343	8.3503150241164
558	4628776	333	1.9820841263793
558	4665429	334	1.9035055928142
558	4702248	335	1.9393308899505
558	4739790	336	1.8569168937765
558	4778444	337	1.894650962092
558	4816685	338	0.1287123588955
558	4855059	339	0.043149109450168
558	4893747	340	0.0412810442294
558	4932487	341	-0.9938321474427
558	4971990	342	-2.3761008583081
558	5010954	343	-2.2428146533053
559	4628776	333	4.3688688567907
559	4665429	334	5.2441543278271
559	4702248	335	6.3576710914974
559	4739790	336	7.1412565751428
559	4778444	337	8.2918041434592
559	4816685	338	2.4569680520485
559	4855059	339	2.1756210680609
559	4893747	340	2.1739794532565
559	4932487	341	0.973
559	4971990	342	0.973
559	5010954	343	0.973
560	4665429	334	2414.8609309468
560	4702248	335	2414.8609309468
560	4739790	336	2411.9059834869
560	4778444	337	2407.166417565
560	4816685	338	2402.1004691579
560	4855059	339	2395.6707719407
560	4893747	340	2387.9116953042
560	4932487	341	2378.7783672449
560	4971990	342	2368.9775560286
560	5010954	343	2359.1948309651
561	4665429	334	1578.4564801566
561	4702248	335	1578.4564801566
561	4739790	336	1579.5415214412
561	4778444	337	1581.5489020301
561	4816685	338	1586.680009854
561	4855059	339	1593.1924073454
561	4893747	340	1601.0512830457
561	4932487	341	1610.302086114
561	4971990	342	1620.2289576633
561	5010954	343	1630.1375104319
562	4702248	335	4.0815319345576
562	4739790	336	6.1453734823443
562	4778444	337	8.1025127709807
562	4816685	338	9.9063427126907
562	4855059	339	11.841136182026
562	4893747	340	13.947525333884
562	4932487	341	13.982871943288
562	4971990	342	13.986418211386
562	5010954	343	13.980009690155
563	4739790	336	2.0638415477867
563	4778444	337	1.9571392886364
563	4816685	338	1.80382994171
563	4855059	339	1.9347934693354
563	4893747	340	2.1063891518582
563	4932487	341	0.035346609404186
563	4971990	342	0.003546268097125
563	5010954	343	-0.0064085212303322
564	4739790	336	4.484514045068
564	4778444	337	5.3717216496289
564	4816685	338	5.9842046806523
564	4855059	339	7.3559376514516
564	4893747	340	9.1137953493635
564	4932487	341	2.1562057060981
564	4971990	342	2.0494089313823
564	5010954	343	2.0152075381006
565	4778444	337	2414.8792685461
565	4816685	338	2414.8792685461
565	4855059	339	2412.0636509821
565	4893747	340	2407.4165673964
565	4932487	341	2402.4530173306
565	4971990	342	2395.9961591603
565	5010954	343	2388.2121942582
566	4778444	337	1578.4497466851
566	4816685	338	1578.4497466851
566	4855059	339	1579.4836267605
566	4893747	340	1581.2955347132
566	4932487	341	1586.3229271239
566	4971990	342	1592.8628349192
566	5010954	343	1600.7469190042
567	4816685	338	3.796890425402
567	4855059	339	5.9923726971883
567	4893747	340	7.981162870209
567	4932487	341	10.093039909461
567	4971990	342	12.010619457112
567	5010954	343	13.318139087686
568	4855059	339	2.1954822717863
568	4893747	340	1.9887901730207
568	4932487	341	2.1118770392518
568	4971990	342	1.9175795476511
568	5010954	343	1.3075196305743
569	4855059	339	4.5895815701543
569	4893747	340	5.3673348069596
569	4932487	341	6.8288471436391
569	4971990	342	7.3999948526235
569	5010954	343	6.1673999613392
570	4893747	340	2414.8744365546
570	4932487	341	2414.8744365546
570	4971990	342	2411.9120132023
570	5010954	343	2407.1867292559
571	4893747	340	1578.4515209673
571	4932487	341	1578.4515209673
571	4971990	342	1579.5393073615
571	5010954	343	1581.5283290856
572	4932487	341	4.0378543063235
572	4971990	342	6.0987211704911
572	5010954	343	7.9599777498357
573	4971990	342	2.0608668641676
573	5010954	343	1.8612565793446
574	4971990	342	4.4542025971242
574	5010954	343	5.1111311850974
575	5010954	343	2414.8524763706
576	5010954	343	1578.459584632

