version 2
run Default-0-20200331-10:16:31-32034
attr configname Default
attr datetime 20200331-10:16:31
attr experiment Default
attr inifile omnetpp.ini
attr iterationvars ""
attr iterationvarsf ""
attr measurement ""
attr network RSUExampleScenario
attr processid 32034
attr repetition 0
attr replication #0
attr resultdir results
attr runnumber 0
attr seedset 0
param *.playgroundSizeX 2500m
param *.playgroundSizeY 2500m
param *.playgroundSizeZ 50m
param *.annotations.draw true
param *.obstacles.obstacles "xmldoc(\"config.xml\", \"//AnalogueModel[@type='SimpleObstacleShadowing']/obstacles\")"
param *.manager.updateInterval 1s
param *.manager.host "\"localhost\""
param *.manager.port 9999
param *.manager.autoShutdown true
param *.manager.launchConfig "xmldoc(\"erlangen.launchd.xml\")"
param *.rsu[0].mobility.x 2000
param *.rsu[0].mobility.y 2000
param *.rsu[0].mobility.z 3
param *.rsu[*].applType "\"TraCIDemoRSU11p\""
param *.rsu[*].appl.headerLength "80 bit"
param *.rsu[*].appl.sendBeacons true
param *.rsu[*].appl.sendWSA true
param *.rsu[*].appl.dataOnSch false
param *.rsu[*].appl.beaconInterval 1s
param *.rsu[*].appl.beaconUserPriority 7
param *.rsu[*].appl.dataUserPriority 5
param *.rsu[*].nic.phy80211p.antennaOffsetZ "0 m"
param *.connectionManager.sendDirect true
param *.connectionManager.maxInterfDist 2600m
param *.connectionManager.drawMaxIntfDist false
param *.**.nic.mac1609_4.useServiceChannel false
param *.**.nic.mac1609_4.txPower 20mW
param *.**.nic.mac1609_4.bitrate 6Mbps
param *.**.nic.phy80211p.minPowerLevel -110dBm
param *.**.nic.phy80211p.useNoiseFloor true
param *.**.nic.phy80211p.noiseFloor -98dBm
param *.**.nic.phy80211p.decider "xmldoc(\"config.xml\")"
param *.**.nic.phy80211p.analogueModels "xmldoc(\"config.xml\")"
param *.**.nic.phy80211p.usePropagationDelay true
param *.**.nic.phy80211p.antenna "xmldoc(\"antenna.xml\", \"/root/Antenna[@id='monopole']\")"
param *.node[*].nic.phy80211p.antennaOffsetY "0 m"
param *.node[*].nic.phy80211p.antennaOffsetZ "1.895 m"
param *.node[*].dsp.camq.sendInterval 10s
param *.node[*].dsp.denq.sendInterval 2s
param *.node[*].applType "\"TraCIDemo11p\""
param *.node[*].appl.headerLength "80 bit"
param *.node[*].appl.sendBeacons true
param *.node[*].appl.sendWSA true
param *.node[*].appl.dataOnSch false
param *.node[*].appl.beaconInterval 1s
param *.node[*].veinsmobility.x 0
param *.node[*].veinsmobility.y 0
param *.node[*].veinsmobility.z 0
param *.node[*].veinsmobility.setHostSpeed false
param *.node[*0].veinsmobility.accidentCount 1
param *.node[*0].veinsmobility.accidentStart 73s
param *.node[*0].veinsmobility.accidentDuration 50s

vector 0 RSUExampleScenario.node[0].veinsmobility posx ETV
vector 1 RSUExampleScenario.node[0].veinsmobility posy ETV
vector 2 RSUExampleScenario.node[0].veinsmobility speed ETV
vector 3 RSUExampleScenario.node[0].veinsmobility acceleration ETV
vector 4 RSUExampleScenario.node[0].veinsmobility co2emission ETV
0	11	1	2414.8476884116
0	40	2	2414.8476884116
0	69	3	2411.8243290941
1	11	1	1578.4613427464
1	40	2	1578.4613427464
1	69	3	1579.5715045081
2	40	2	4.1061966058897
2	69	3	6.0195495591482
3	69	3	1.9133529532584
4	69	3	4.1962556146115
vector 5 RSUExampleScenario.node[1].veinsmobility posx ETV
vector 6 RSUExampleScenario.node[1].veinsmobility posy ETV
vector 7 RSUExampleScenario.node[1].veinsmobility speed ETV
vector 8 RSUExampleScenario.node[1].veinsmobility acceleration ETV
vector 9 RSUExampleScenario.node[1].veinsmobility co2emission ETV
vector 10 RSUExampleScenario.node[2].veinsmobility posx ETV
vector 11 RSUExampleScenario.node[2].veinsmobility posy ETV
vector 12 RSUExampleScenario.node[2].veinsmobility speed ETV
vector 13 RSUExampleScenario.node[2].veinsmobility acceleration ETV
vector 14 RSUExampleScenario.node[2].veinsmobility co2emission ETV
vector 15 RSUExampleScenario.node[3].veinsmobility posx ETV
vector 16 RSUExampleScenario.node[3].veinsmobility posy ETV
vector 17 RSUExampleScenario.node[3].veinsmobility speed ETV
vector 18 RSUExampleScenario.node[3].veinsmobility acceleration ETV
vector 19 RSUExampleScenario.node[3].veinsmobility co2emission ETV
vector 20 RSUExampleScenario.node[4].veinsmobility posx ETV
vector 21 RSUExampleScenario.node[4].veinsmobility posy ETV
vector 22 RSUExampleScenario.node[4].veinsmobility speed ETV
vector 23 RSUExampleScenario.node[4].veinsmobility acceleration ETV
vector 24 RSUExampleScenario.node[4].veinsmobility co2emission ETV
vector 25 RSUExampleScenario.node[5].veinsmobility posx ETV
vector 26 RSUExampleScenario.node[5].veinsmobility posy ETV
vector 27 RSUExampleScenario.node[5].veinsmobility speed ETV
vector 28 RSUExampleScenario.node[5].veinsmobility acceleration ETV
vector 29 RSUExampleScenario.node[5].veinsmobility co2emission ETV
vector 30 RSUExampleScenario.node[6].veinsmobility posx ETV
vector 31 RSUExampleScenario.node[6].veinsmobility posy ETV
vector 32 RSUExampleScenario.node[6].veinsmobility speed ETV
vector 33 RSUExampleScenario.node[6].veinsmobility acceleration ETV
vector 34 RSUExampleScenario.node[6].veinsmobility co2emission ETV
vector 35 RSUExampleScenario.node[7].veinsmobility posx ETV
vector 36 RSUExampleScenario.node[7].veinsmobility posy ETV
vector 37 RSUExampleScenario.node[7].veinsmobility speed ETV
vector 38 RSUExampleScenario.node[7].veinsmobility acceleration ETV
vector 39 RSUExampleScenario.node[7].veinsmobility co2emission ETV
vector 40 RSUExampleScenario.node[8].veinsmobility posx ETV
vector 41 RSUExampleScenario.node[8].veinsmobility posy ETV
vector 42 RSUExampleScenario.node[8].veinsmobility speed ETV
vector 43 RSUExampleScenario.node[8].veinsmobility acceleration ETV
vector 44 RSUExampleScenario.node[8].veinsmobility co2emission ETV
vector 45 RSUExampleScenario.node[9].veinsmobility posx ETV
vector 46 RSUExampleScenario.node[9].veinsmobility posy ETV
vector 47 RSUExampleScenario.node[9].veinsmobility speed ETV
vector 48 RSUExampleScenario.node[9].veinsmobility acceleration ETV
vector 49 RSUExampleScenario.node[9].veinsmobility co2emission ETV
vector 50 RSUExampleScenario.node[10].veinsmobility posx ETV
vector 51 RSUExampleScenario.node[10].veinsmobility posy ETV
vector 52 RSUExampleScenario.node[10].veinsmobility speed ETV
vector 53 RSUExampleScenario.node[10].veinsmobility acceleration ETV
vector 54 RSUExampleScenario.node[10].veinsmobility co2emission ETV
vector 55 RSUExampleScenario.node[11].veinsmobility posx ETV
vector 56 RSUExampleScenario.node[11].veinsmobility posy ETV
vector 57 RSUExampleScenario.node[11].veinsmobility speed ETV
vector 58 RSUExampleScenario.node[11].veinsmobility acceleration ETV
vector 59 RSUExampleScenario.node[11].veinsmobility co2emission ETV
vector 60 RSUExampleScenario.node[12].veinsmobility posx ETV
vector 61 RSUExampleScenario.node[12].veinsmobility posy ETV
vector 62 RSUExampleScenario.node[12].veinsmobility speed ETV
vector 63 RSUExampleScenario.node[12].veinsmobility acceleration ETV
vector 64 RSUExampleScenario.node[12].veinsmobility co2emission ETV
vector 65 RSUExampleScenario.node[13].veinsmobility posx ETV
vector 66 RSUExampleScenario.node[13].veinsmobility posy ETV
vector 67 RSUExampleScenario.node[13].veinsmobility speed ETV
vector 68 RSUExampleScenario.node[13].veinsmobility acceleration ETV
vector 69 RSUExampleScenario.node[13].veinsmobility co2emission ETV
vector 70 RSUExampleScenario.node[14].veinsmobility posx ETV
vector 71 RSUExampleScenario.node[14].veinsmobility posy ETV
vector 72 RSUExampleScenario.node[14].veinsmobility speed ETV
vector 73 RSUExampleScenario.node[14].veinsmobility acceleration ETV
vector 74 RSUExampleScenario.node[14].veinsmobility co2emission ETV
vector 75 RSUExampleScenario.node[15].veinsmobility posx ETV
vector 76 RSUExampleScenario.node[15].veinsmobility posy ETV
vector 77 RSUExampleScenario.node[15].veinsmobility speed ETV
vector 78 RSUExampleScenario.node[15].veinsmobility acceleration ETV
vector 79 RSUExampleScenario.node[15].veinsmobility co2emission ETV
vector 80 RSUExampleScenario.node[16].veinsmobility posx ETV
vector 81 RSUExampleScenario.node[16].veinsmobility posy ETV
vector 82 RSUExampleScenario.node[16].veinsmobility speed ETV
vector 83 RSUExampleScenario.node[16].veinsmobility acceleration ETV
vector 84 RSUExampleScenario.node[16].veinsmobility co2emission ETV
vector 85 RSUExampleScenario.node[17].veinsmobility posx ETV
vector 86 RSUExampleScenario.node[17].veinsmobility posy ETV
vector 87 RSUExampleScenario.node[17].veinsmobility speed ETV
vector 88 RSUExampleScenario.node[17].veinsmobility acceleration ETV
vector 89 RSUExampleScenario.node[17].veinsmobility co2emission ETV
vector 90 RSUExampleScenario.node[18].veinsmobility posx ETV
vector 91 RSUExampleScenario.node[18].veinsmobility posy ETV
vector 92 RSUExampleScenario.node[18].veinsmobility speed ETV
vector 93 RSUExampleScenario.node[18].veinsmobility acceleration ETV
vector 94 RSUExampleScenario.node[18].veinsmobility co2emission ETV
vector 95 RSUExampleScenario.node[19].veinsmobility posx ETV
vector 96 RSUExampleScenario.node[19].veinsmobility posy ETV
vector 97 RSUExampleScenario.node[19].veinsmobility speed ETV
vector 98 RSUExampleScenario.node[19].veinsmobility acceleration ETV
vector 99 RSUExampleScenario.node[19].veinsmobility co2emission ETV
vector 100 RSUExampleScenario.node[20].veinsmobility posx ETV
vector 101 RSUExampleScenario.node[20].veinsmobility posy ETV
vector 102 RSUExampleScenario.node[20].veinsmobility speed ETV
vector 103 RSUExampleScenario.node[20].veinsmobility acceleration ETV
vector 104 RSUExampleScenario.node[20].veinsmobility co2emission ETV
vector 105 RSUExampleScenario.node[21].veinsmobility posx ETV
vector 106 RSUExampleScenario.node[21].veinsmobility posy ETV
vector 107 RSUExampleScenario.node[21].veinsmobility speed ETV
vector 108 RSUExampleScenario.node[21].veinsmobility acceleration ETV
vector 109 RSUExampleScenario.node[21].veinsmobility co2emission ETV
vector 110 RSUExampleScenario.node[22].veinsmobility posx ETV
vector 111 RSUExampleScenario.node[22].veinsmobility posy ETV
vector 112 RSUExampleScenario.node[22].veinsmobility speed ETV
vector 113 RSUExampleScenario.node[22].veinsmobility acceleration ETV
vector 114 RSUExampleScenario.node[22].veinsmobility co2emission ETV
vector 115 RSUExampleScenario.node[23].veinsmobility posx ETV
vector 116 RSUExampleScenario.node[23].veinsmobility posy ETV
vector 117 RSUExampleScenario.node[23].veinsmobility speed ETV
vector 118 RSUExampleScenario.node[23].veinsmobility acceleration ETV
vector 119 RSUExampleScenario.node[23].veinsmobility co2emission ETV
vector 120 RSUExampleScenario.node[24].veinsmobility posx ETV
vector 121 RSUExampleScenario.node[24].veinsmobility posy ETV
vector 122 RSUExampleScenario.node[24].veinsmobility speed ETV
vector 123 RSUExampleScenario.node[24].veinsmobility acceleration ETV
vector 124 RSUExampleScenario.node[24].veinsmobility co2emission ETV
vector 125 RSUExampleScenario.node[25].veinsmobility posx ETV
vector 126 RSUExampleScenario.node[25].veinsmobility posy ETV
vector 127 RSUExampleScenario.node[25].veinsmobility speed ETV
vector 128 RSUExampleScenario.node[25].veinsmobility acceleration ETV
vector 129 RSUExampleScenario.node[25].veinsmobility co2emission ETV
vector 130 RSUExampleScenario.node[26].veinsmobility posx ETV
vector 131 RSUExampleScenario.node[26].veinsmobility posy ETV
vector 132 RSUExampleScenario.node[26].veinsmobility speed ETV
vector 133 RSUExampleScenario.node[26].veinsmobility acceleration ETV
vector 134 RSUExampleScenario.node[26].veinsmobility co2emission ETV
vector 135 RSUExampleScenario.node[27].veinsmobility posx ETV
vector 136 RSUExampleScenario.node[27].veinsmobility posy ETV
vector 137 RSUExampleScenario.node[27].veinsmobility speed ETV
vector 138 RSUExampleScenario.node[27].veinsmobility acceleration ETV
vector 139 RSUExampleScenario.node[27].veinsmobility co2emission ETV
vector 140 RSUExampleScenario.node[28].veinsmobility posx ETV
vector 141 RSUExampleScenario.node[28].veinsmobility posy ETV
vector 142 RSUExampleScenario.node[28].veinsmobility speed ETV
vector 143 RSUExampleScenario.node[28].veinsmobility acceleration ETV
vector 144 RSUExampleScenario.node[28].veinsmobility co2emission ETV
vector 145 RSUExampleScenario.node[29].veinsmobility posx ETV
vector 146 RSUExampleScenario.node[29].veinsmobility posy ETV
0	98	4	2407.1592244543
0	158	5	2402.288200066
0	218	6	2396.1394374635
0	278	7	2388.6993875942
0	382	8	2379.889221533
0	487	9	2370.1207192459
0	592	10	2360.3141803208
0	753	11	2350.5099475634
0	915	12	2341.0010868867
0	1078	13	2334.5620136983
0	1301	14	2337.6803779466
0	1524	15	2348.3497968862
0	1747	16	2358.6961674725
0	2042	17	2371.6616533546
0	2339	18	2385.4706804305
0	2637	19	2399.3588350668
0	3017	20	2412.4541998667
0	3398	21	2421.4418196582
0	3781	22	2428.417609864
0	4258	23	2431.468930052
0	4736	24	2433.1513403206
0	5216	25	2435.1237040944
0	5812	26	2437.2173147583
0	6400	27	2438.6437980286
0	6988	28	2439.5074353185
0	7695	29	2440.517813261
0	8402	30	2441.5286354903
0	9111	31	2442.5392864447
0	9957	32	2443.5505626462
0	10790	33	2444.5611125134
0	11623	34	2445.5724211388
0	12601	35	2446.5834693939
0	13570	36	2447.5934051003
0	14525	37	2448.6036931522
0	15628	38	2449.6148620235
0	16711	39	2450.6248001783
0	17779	40	2449.5880553933
0	19003	41	2448.4757357414
0	20225	42	2447.3635385588
0	21444	43	2446.250303259
0	22853	44	2445.1365203297
0	24255	45	2444.0235521834
0	25661	46	2442.9111769209
0	27252	47	2441.7982721732
0	28826	48	2440.6856421625
0	30385	49	2439.7151308154
0	32143	50	2438.7725309408
0	33874	51	2437.9056889905
0	35598	52	2432.8785054281
0	37532	53	2422.5273191113
0	39447	54	2409.439604845
0	41363	55	2395.517893619
0	43498	56	2381.592286239
0	45630	57	2367.6659531716
0	47773	58	2353.7601239877
0	50124	59	2339.8337569573
0	52464	60	2325.9069679289
0	54784	61	2311.9542202253
0	57331	62	2298.0325140053
0	59859	63	2284.0857072632
0	62382	64	2270.1754193477
0	65113	65	2256.2378749268
0	67837	66	2242.3725172955
0	70556	67	2228.5568932705
0	73470	68	2214.8035730832
0	76339	69	2201.6130456962
0	79159	70	2188.4247624045
0	82184	71	2175.5107078577
0	85148	72	2163.5018647154
0	88086	73	2152.2359160049
0	91279	74	2144.5614629743
0	94459	75	2140.764952604
0	97661	76	2140.3209259163
0	101116	77	2140.3209259163
0	104558	78	2140.3209259163
0	108009	79	2140.3209259163
0	111727	80	2140.3209259163
0	115408	81	2140.3209259163
0	119059	82	2140.3209259163
0	123007	83	2140.3209259163
0	126944	84	2140.3209259163
0	131017	85	2140.3209259163
0	135238	86	2140.3209259163
0	141289	87	2140.3209259163
0	145480	88	2140.3209259163
1	98	4	1581.5561876604
1	158	5	1586.4898643075
1	218	6	1592.7177137369
1	278	7	1600.2534592729
1	382	8	1609.1769437566
1	487	9	1619.0710908128
1	592	10	1629.0037637418
1	753	11	1638.9341008412
1	915	12	1649.1129276818
1	1078	13	1661.0453354148
1	1301	14	1673.5713017788
1	1524	15	1682.4825292248
1	1747	16	1691.8131453674
1	2042	17	1695.5671389326
1	2339	18	1697.3762977775
1	2637	19	1698.7149431584
1	3017	20	1699.9531973498
1	3398	21	1700.8030368192
1	3781	22	1701.4822415169
1	4258	23	1709.488976148
1	4736	24	1720.5600911779
1	5216	25	1733.5392477075
1	5812	26	1747.3162704222
1	6400	27	1761.1584832035
1	6988	28	1775.0702432813
1	7695	29	1788.9649324082
1	8402	30	1802.8657313576
1	9111	31	1816.7641749373
1	9957	32	1830.6712168986
1	10790	33	1844.5682703312
1	11623	34	1858.4757581847
1	12601	35	1872.3796654344
1	13570	36	1886.2682729438
1	14525	37	1900.1617258992
1	15628	38	1914.0672918586
1	16711	39	1927.95593304
1	17779	40	1941.8192613758
1	19003	41	1955.7024557721
1	20225	42	1969.5841215905
1	21444	43	1983.4787444612
1	22853	44	1997.3802024601
1	24255	45	2011.2714909082
1	25661	46	2025.1553793969
1	27252	47	2039.0458765477
1	28826	48	2052.9329446238
1	30385	49	2066.8462265795
1	32143	50	2080.7728807703
1	33874	51	2094.6498483503
1	35598	52	2107.3969092406
1	37532	53	2116.410831539
1	39447	54	2120.9360540062
1	41363	55	2120.5048353085
1	43498	56	2120.0344859883
1	45630	57	2119.5641121576
1	47773	58	2119.0944308629
1	50124	59	2118.6240558857
1	52464	60	2118.1536666537
1	54784	61	2117.6824006466
1	57331	62	2117.2121830918
1	59859	63	2116.7411177447
1	62382	64	2116.2712858524
1	65113	65	2115.8005333487
1	67837	66	2114.7955725584
1	70556	67	2112.8364102887
1	73470	68	2110.6440530941
1	76339	69	2106.1704403665
1	79159	70	2101.6975887315
1	82184	71	2096.6391956527
1	85148	72	2089.5697793076
1	88086	73	2082.9376931852
1	91279	74	2078.419863862
1	94459	75	2076.1849181512
1	97661	76	2075.9235266512
1	101116	77	2075.9235266512
1	104558	78	2075.9235266512
1	108009	79	2075.9235266512
1	111727	80	2075.9235266512
1	115408	81	2075.9235266512
1	119059	82	2075.9235266512
1	123007	83	2075.9235266512
1	126944	84	2075.9235266512
1	131017	85	2075.9235266512
1	135238	86	2075.9235266512
1	141289	87	2075.9235266512
1	145480	88	2075.9235266512
2	98	4	7.7148368984793
2	158	5	9.5879868385225
2	218	6	11.391389363371
2	278	7	13.513839789145
2	382	8	13.99235115225
2	487	9	13.890224446259
2	592	10	13.976677174468
2	753	11	13.994826577434
2	915	12	13.923680325528
2	1078	13	13.923542996629
2	1301	14	13.91007151508
2	1524	15	13.964598868005
2	1747	16	13.995233640105
2	2042	17	13.952304350403
2	2339	18	13.956911946491
2	2637	19	11.503494614513
2	3017	20	7.0034946145128
2	3398	21	7.8970062485022
2	3781	22	10.10483181514
2	4258	23	11.990706169653
2	4736	24	13.981089308816
2	5216	25	13.965594365916
2	5812	26	13.989059597438
2	6400	27	13.956378436291
2	6988	28	13.910982951869
2	7695	29	13.88918493646
2	8402	30	13.908189346099
2	9111	31	13.983992603337
2	9957	32	13.971500478752
2	10790	33	13.873081948087
2	11623	34	13.985133641064
2	12601	35	13.886848415199
2	13570	36	13.876205747321
2	14525	37	13.967912819823
2	15628	38	13.871047234884
2	16711	39	13.89239756926
2	17779	40	13.872267716837
2	19003	41	13.999815066161
2	20225	42	13.964707984752
2	21444	43	13.906584702837
2	22853	44	13.922364303169
2	24255	45	13.929034490574
2	25661	46	13.93922677479
2	27252	47	13.924399639922
2	28826	48	13.96850544848
2	30385	49	13.986686690277
2	32143	50	13.935194088209
2	33874	51	13.930097484484
2	35598	52	13.948393711536
2	37532	53	13.882971800906
2	39447	54	13.87138918183
2	41363	55	13.933780807857
2	43498	56	13.942265776542
2	45630	57	13.95140511482
2	47773	58	13.886548467774
2	50124	59	13.920721456567
2	52464	60	13.906796863726
2	54784	61	13.917803910668
2	57331	62	13.924582225601
2	59859	63	13.959688465288
2	62382	64	13.957318032989
2	65113	65	13.940553226951
2	67837	66	13.998651232829
2	70556	67	13.999179182528
2	73470	68	13.886099785112
2	76339	69	13.881868150404
2	79159	70	13.887636745651
2	82184	71	13.978686858166
2	85148	72	11.380505228889
2	88086	73	6.8805052288885
2	91279	74	2.3805052288885
2	94459	75	0
2	97661	76	0
2	101116	77	0
2	104558	78	0
2	108009	79	0
2	111727	80	0
2	115408	81	0
2	119059	82	0
2	123007	83	0
2	126944	84	0
2	131017	85	0
2	135238	86	0
2	141289	87	0
2	145480	88	0
3	98	4	1.6952873393311
3	158	5	1.8731499400432
3	218	6	1.8034025248489
3	278	7	2.1224504257739
3	382	8	0.47851136310433
3	487	9	-0.1021267059911
3	592	10	0.086452728209551
3	753	11	0.018149402965792
3	915	12	-0.071146251906175
3	1078	13	-0.0001373288989992
3	1301	14	-0.013471481548622
3	1524	15	0.054527352924923
3	1747	16	0.03063477210002
3	2042	17	-0.04292928970186
3	2339	18	0.0046075960877356
3	2637	19	-2.4534173319781
3	3017	20	-4.5
3	3398	21	0.8935116339894
3	3781	22	2.2078255666373
3	4258	23	1.8858743545134
3	4736	24	1.9903831391631
3	5216	25	-0.01549494290026
3	5812	26	0.023465231521987
3	6400	27	-0.032681161146611
3	6988	28	-0.045395484422334
3	7695	29	-0.021798015409148
3	8402	30	0.019004409639164
3	9111	31	0.075803257238585
3	9957	32	-0.012492124584968
3	10790	33	-0.098418530665803
3	11623	34	0.11205169297755
3	12601	35	-0.098285225864965
3	13570	36	-0.01064266787842
3	14525	37	0.091707072502468
3	15628	38	-0.096865584938786
3	16711	39	0.021350334375166
3	17779	40	-0.020129852422979
3	19003	41	0.12754734932445
3	20225	42	-0.035107081409079
3	21444	43	-0.058123281914741
3	22853	44	0.015779600332026
3	24255	45	0.0066701874043797
3	25661	46	0.010192284216172
3	27252	47	-0.014827134867664
3	28826	48	0.044105808557942
3	30385	49	0.018181241797283
3	32143	50	-0.051492602068466
3	33874	51	-0.0050966037251055
3	35598	52	0.018296227052343
3	37532	53	-0.065421910630539
3	39447	54	-0.011582619075197
3	41363	55	0.062391626026946
3	43498	56	0.0084849686850799
3	45630	57	0.0091393382777465
3	47773	58	-0.064856647045817
3	50124	59	0.034172988792415
3	52464	60	-0.013924592840485
3	54784	61	0.011007046941668
3	57331	62	0.0067783149331806
3	59859	63	0.035106239686721
3	62382	64	-0.0023704322986315
3	65113	65	-0.016764806038699
3	67837	66	0.058098005878273
3	70556	67	0.0005279496987356
3	73470	68	-0.11307939741528
3	76339	69	-0.0042316347081215
3	79159	70	0.0057685952470639
3	82184	71	0.091050112515221
3	85148	72	-2.598181629278
3	88086	73	-4.5
3	91279	74	-4.5
3	94459	75	-2.3805052288885
3	97661	76	0
3	101116	77	0
3	104558	78	0
3	108009	79	0
3	111727	80	0
3	115408	81	0
3	119059	82	0
3	123007	83	0
3	126944	84	0
3	131017	85	0
3	135238	86	0
3	141289	87	0
3	145480	88	0
4	98	4	4.6765885426193
4	158	5	5.9822455727343
4	218	6	6.7469998477461
4	278	7	8.9023657158011
4	382	8	3.651678681686
4	487	9	1.6857621818206
4	592	10	2.3276633668785
4	753	11	2.0995306276608
4	915	12	1.7923040941768
4	1078	13	2.0305681317735
4	1301	14	1.9844951865828
4	1524	15	2.2187318873595
4	1747	16	2.1416854339172
4	2042	17	1.8896148890835
4	2339	18	2.0499339673421
4	2637	19	0.973
4	3017	20	0.973
4	3398	21	3.236958348016
4	3781	22	7.0694109561587
4	4258	23	7.2974163894139
4	4736	24	8.7433911631671
4	5216	25	1.9831721788576
4	5812	26	2.116835898497
4	6400	27	1.9244585801898
4	6988	28	1.8775583559564
4	7695	29	1.9545657515643
4	8402	30	2.0931646705581
4	9111	31	2.2926746988581
4	9957	32	1.993865292131
4	10790	33	1.6968396252803
4	11623	34	2.4149847823944
4	12601	35	1.6983583398882
4	13570	36	1.9906198998388
4	14525	37	2.3442713071536
4	15628	38	1.7018725964397
4	16711	39	2.0993392475273
4	17779	40	1.9585122345881
4	19003	41	2.4691677522194
4	20225	42	1.9170802753567
4	21444	43	1.8345014514108
4	22853	44	2.0838538984303
4	24255	45	2.0539801513469
4	25661	46	2.0668686152862
4	27252	47	1.9813596940184
4	28826	48	2.1840996762636
4	30385	49	2.0987681125428
4	32143	50	1.8592856847688
4	33874	51	2.0145873760113
4	35598	52	2.0950692067684
4	37532	53	1.8080099866508
4	39447	54	1.9870007069688
4	41363	55	2.2415869227426
4	43498	56	2.0614496349521
4	45630	57	2.0646020593826
4	47773	58	1.8102089718445
4	50124	59	2.1453880261281
4	52464	60	1.9826536733129
4	54784	61	2.0673636130683
4	57331	62	2.0538817544551
4	59859	63	2.1528270365066
4	62382	64	2.0265038417738
4	65113	65	1.9764402783138
4	67837	66	2.2347131127692
4	70556	67	2.0405446651404
4	73470	68	1.6487905152147
4	76339	69	2.0126291187762
4	79159	70	2.0466796925005
4	82184	71	2.3433989621326
4	85148	72	0.973
4	88086	73	0.973
4	91279	74	0.973
4	94459	75	0.973
4	97661	76	0.973
4	101116	77	0.973
4	104558	78	0.973
4	108009	79	0.973
4	111727	80	0.973
4	115408	81	0.973
4	119059	82	0.973
4	123007	83	0.973
4	126944	84	0.973
4	131017	85	0.973
4	135238	86	0.973
4	141289	87	0.973
4	145480	88	0.973
5	98	4	2414.8767583254
5	158	5	2414.8767583254
5	218	6	2411.8725636174
5	278	7	2407.2970525089
5	382	8	2402.4626210862
5	487	9	2396.3056860371
5	592	10	2388.8743536096
5	753	11	2380.097228827
5	915	12	2370.3507264333
5	1078	13	2360.5878487076
5	1301	14	2350.7849318213
5	1524	15	2341.2418729237
5	1747	16	2334.6305580324
5	2042	17	2337.3467480277
5	2339	18	2348.0519014368
5	2637	19	2358.3998493504
5	3017	20	2371.2788021446
5	3398	21	2385.0887639745
5	3781	22	2398.4985461925
5	4258	23	2411.2485283293
5	4736	24	2420.6905829484
5	5216	25	2427.6440450998
5	5812	26	2431.3031180431
5	6400	27	2432.9057471878
5	6988	28	2434.8184996871
5	7695	29	2436.9106889558
5	8402	30	2438.5031214217
5	9111	31	2439.359314087
5	9957	32	2440.3695716034
5	10790	33	2441.3815056744
5	11623	34	2442.392207776
5	12601	35	2443.4019859718
5	13570	36	2444.4122552489
5	14525	37	2445.4251439738
5	15628	38	2446.4367595227
5	16711	39	2447.4467230743
5	17779	40	2448.4574488286
5	19003	41	2449.467800329
5	20225	42	2450.4780716181
5	21444	43	2449.7461704329
5	22853	44	2448.6331060936
5	24255	45	2447.5209445587
5	25661	46	2446.407523851
5	27252	47	2445.2946584851
5	28826	48	2444.1824360332
5	30385	49	2443.0706190476
5	32143	50	2441.9568028547
5	33874	51	2440.8451110823
5	35598	52	2439.8503503047
5	37532	53	2438.9091742415
5	39447	54	2438.2310626655
5	41363	55	2433.9050446447
5	43498	56	2424.21615465
5	45630	57	2411.3460908785
5	47773	58	2397.4706148925
5	50124	59	2383.5587488873
5	52464	60	2369.633660475
5	54784	61	2355.7048479554
5	57331	62	2341.7904321874
5	59859	63	2327.8638711022
5	62382	64	2313.9188814831
5	65113	65	2299.9979078089
5	67837	66	2286.0826278217
5	70556	67	2272.1551827891
5	73470	68	2258.2333055256
5	76339	69	2244.3319301521
5	79159	70	2230.5388995206
5	82184	71	2216.7493601282
5	85148	72	2203.5089906314
5	88086	73	2190.3028214657
5	91279	74	2177.2175397498
5	94459	75	2166.0508945999
5	97661	76	2157.6231104804
5	101116	77	2151.7712981963
5	104558	78	2148.1230201763
5	108009	79	2146.1290875688
5	111727	80	2145.2101491778
5	115408	81	2144.8407904832
5	119059	82	2144.7060883162
5	123007	83	2144.6576023959
5	126944	84	2144.6402772203
5	131017	85	2144.6340603527
5	135238	86	2144.6318573126
5	141289	87	2144.6310625414
5	145480	88	2144.6307734308
6	98	4	1578.4506684253
6	158	5	1578.4506684253
6	218	6	1579.5537930429
6	278	7	1581.4165868293
6	382	8	1586.3131998433
6	487	9	1592.5493268352
6	592	10	1600.0762428036
6	753	11	1608.9662610246
6	915	12	1618.8381252186
6	1078	13	1628.7265753681
6	1301	14	1638.6555796713
6	1524	15	1648.8046840783
6	1747	16	1660.6325348346
6	2042	17	1673.301875555
6	2339	18	1682.2138796467
6	2637	19	1691.5459182626
6	3017	20	1695.5099147679
6	3398	21	1697.3308411958
6	3781	22	1698.6335971011
6	4258	23	1699.8391930545
6	4736	24	1700.7320023719
6	5216	25	1701.2941834759
6	5812	26	1708.3978488175
6	6400	27	1718.9439634858
6	6988	28	1731.5308475178
6	7695	29	1745.2985167308
6	8402	30	1759.1189484736
6	9111	31	1773.033284259
6	9957	32	1786.9263172904
6	10790	33	1800.8424062571
6	11623	34	1814.7415532097
6	12601	35	1828.6279946407
6	13570	36	1842.5211894047
6	14525	37	1856.4504067414
6	15628	38	1870.362115399
6	16711	39	1884.2511058366
6	17779	40	1898.150578063
6	19003	41	1912.0449035605
6	20225	42	1925.9381259941
6	21444	43	1939.8457802581
6	22853	44	1953.7382693188
6	24255	45	1967.6194902081
6	25661	46	1981.5164272105
6	27252	47	1995.4064328251
6	28826	48	2009.2884140396
6	30385	49	2023.165334505
6	32143	50	2037.0672076773
6	33874	51	2050.942565321
6	35598	52	2064.8483957723
6	37532	53	2078.754013543
6	39447	54	2092.6537938379
6	41363	55	2105.6893007364
6	43498	56	2115.3934075218
6	45630	57	2120.5034639826
6	47773	58	2120.5707901428
6	50124	59	2120.100904949
6	52464	60	2119.6305731572
6	54784	61	2119.160115581
6	57331	62	2118.6901442679
6	59859	63	2118.2197627351
6	62382	64	2117.748758764
6	65113	65	2117.2785659507
6	67837	66	2116.8085654471
6	70556	67	2116.3381540589
6	73470	68	2115.8679307271
6	76339	69	2115.0734324455
6	79159	70	2113.117474094
6	82184	71	2111.1620108271
6	85148	72	2106.8134566117
6	88086	73	2102.3345389208
6	91279	74	2097.6439806372
6	94459	75	2091.0703529529
6	97661	76	2086.1090495121
6	101116	77	2082.6641800171
6	104558	78	2080.516496351
6	108009	79	2079.3426997084
6	111727	80	2078.8017351869
6	115408	81	2078.584299556
6	119059	82	2078.5050025163
6	123007	83	2078.4764596215
6	126944	84	2078.4662605636
6	131017	85	2078.4626007918
6	135238	86	2078.4613038972
6	141289	87	2078.4608360277
6	145480	88	2078.4606658332
7	158	5	4.0332649588119
7	218	6	5.8265110515686
7	278	7	7.7852127750962
7	382	8	9.5658873894228
7	487	9	11.450149483434
7	592	10	13.391487500134
7	753	11	13.949883621705
7	915	12	13.87602620427
7	1078	13	13.885232782268
7	1301	14	13.987373048679
7	1524	15	13.890608048609
7	1747	16	13.887004709987
7	2042	17	13.926980708602
7	2339	18	13.89086526999
7	2637	19	13.965056618985
7	3017	20	13.946692067499
7	3398	21	13.097137451398
7	3781	22	11.939132677032
7	4258	23	7.4783001788439
7	4736	24	7.8592269216425
7	5216	25	9.5749213322898
7	5812	26	11.610942506126
7	6400	27	13.581243869506
7	6988	28	13.973211987913
7	7695	29	13.918392209036
7	8402	30	13.928662607018
7	9111	31	13.985277111761
7	9957	32	13.95532245066
7	10790	33	13.938708755139
7	11623	34	13.908545650935
7	12601	35	13.927478809105
7	13570	36	13.897819017794
7	14525	37	13.989504252097
7	15628	38	13.94374062394
7	16711	39	13.903882643976
7	17779	40	13.969130632835
7	19003	41	13.884234787642
7	20225	42	13.881978327318
7	21444	43	13.927070145076
7	22853	44	13.922745489741
7	24255	45	13.95273740395
7	25661	46	13.968270483359
7	27252	47	13.918685564972
7	28826	48	13.921468284922
7	30385	49	13.897015957548
7	32143	50	13.964752228069
7	33874	51	13.91147568828
7	35598	52	13.974545761354
7	37532	53	13.965476403411
7	39447	54	13.989670229855
7	41363	55	13.951804798429
7	43498	56	13.892850009208
7	45630	57	13.958218119799
7	47773	58	13.933717581006
7	50124	59	13.982012811573
7	52464	60	13.954506225567
7	54784	61	13.954468280503
7	57331	62	13.914126337939
7	59859	63	13.998578815588
7	62382	64	13.932968401979
7	65113	65	13.954534002345
7	67837	66	13.957377178506
7	70556	67	13.932528918332
7	73470	68	13.977439161665
7	76339	69	13.873707558191
7	79159	70	13.945779315263
7	82184	71	13.942668949808
7	85148	72	13.91575948562
7	88086	73	13.907857767178
7	91279	74	11.509649644586
7	94459	75	8.354934886828
7	97661	76	5.5437759062738
7	101116	77	3.307407476074
7	104558	78	1.6348540751313
7	108009	79	0.71722348573033
7	111727	80	0.25744643425691
7	115408	81	0.096330583691781
7	119059	82	0.033582834564042
7	123007	83	0.012074018451278
7	126944	84	0.0044146382852531
7	131017	85	0.0015233755870791
7	135238	86	0.00054909975708676
7	141289	87	0.00020074254418819
7	145480	88	7.1398246478238e-05
8	218	6	1.7932460927567
8	278	7	1.9587017235276
8	382	8	1.7806746143266
8	487	9	1.8842620940111
8	592	10	1.9413380167005
8	753	11	0.5583961215709
8	915	12	-0.073857417434921
8	1078	13	0.0092065779981212
8	1301	14	0.10214026641101
8	1524	15	-0.096765000070445
8	1747	16	-0.0036033386224883
8	2042	17	0.039975998615846
8	2339	18	-0.036115438612178
8	2637	19	0.074191348995083
8	3017	20	-0.018364551486448
8	3398	21	-0.84955461610103
8	3781	22	-1.1580047743662
8	4258	23	-4.4608324981877
8	4736	24	0.38092674279862
8	5216	25	1.7156944106473
8	5812	26	2.0360211738362
8	6400	27	1.9703013633797
8	6988	28	0.39196811840698
8	7695	29	-0.054819778876846
8	8402	30	0.010270397982096
8	9111	31	0.056614504742901
8	9957	32	-0.029954661100637
8	10790	33	-0.016613695521373
8	11623	34	-0.030163104203529
8	12601	35	0.018933158169965
8	13570	36	-0.029659791311714
8	14525	37	0.091685234303586
8	15628	38	-0.045763628156855
8	16711	39	-0.039857979963999
8	17779	40	0.065247988859191
8	19003	41	-0.08489584519295
8	20225	42	-0.0022564603248618
8	21444	43	0.045091817758511
8	22853	44	-0.0043246553349299
8	24255	45	0.029991914208512
8	25661	46	0.015533079409506
8	27252	47	-0.0495849183877
8	28826	48	0.0027827199501917
8	30385	49	-0.024452327373437
8	32143	50	0.067736270520836
8	33874	51	-0.053276539789513
8	35598	52	0.063070073074195
8	37532	53	-0.0090693579427903
8	39447	54	0.024193826443517
8	41363	55	-0.037865431425162
8	43498	56	-0.058954789221753
8	45630	57	0.065368110591081
8	47773	58	-0.024500538792926
8	50124	59	0.048295230567454
8	52464	60	-0.027506586005911
8	54784	61	-3.7945064249811e-05
8	57331	62	-0.040341942564119
8	59859	63	0.08445247764932
8	62382	64	-0.065610413609539
8	65113	65	0.021565600365866
8	67837	66	0.0028431761614058
8	70556	67	-0.024848260174041
8	73470	68	0.044910243332852
8	76339	69	-0.10373160347343
8	79159	70	0.072071757072118
8	82184	71	-0.0031103654555054
8	85148	72	-0.02690946418792
8	88086	73	-0.0079017184418628
8	91279	74	-2.3982081225927
8	94459	75	-3.1547147577576
8	97661	76	-2.8111589805542
8	101116	77	-2.2363684301998
8	104558	78	-1.6725534009427
8	108009	79	-0.91763058940095
8	111727	80	-0.45977705147342
8	115408	81	-0.16111585056513
8	119059	82	-0.062747749127738
8	123007	83	-0.021508816112765
8	126944	84	-0.0076593801660245
8	131017	85	-0.002891262698174
8	135238	86	-0.00097427582999232
8	141289	87	-0.00034835721289857
8	145480	88	-0.00012934429770995
9	218	6	3.9274001426868
9	278	7	5.2041356246368
9	382	8	5.7574507674447
9	487	9	7.0006276784153
9	592	10	8.2432295261252
9	753	11	3.9110016848773
9	915	12	1.7792042638201
9	1078	13	2.0579365757541
9	1301	14	2.3818636967155
9	1524	15	1.7037407999188
9	1747	16	2.0152488537881
9	2042	17	2.1655550639215
9	2339	18	1.906797412239
9	2637	19	2.2849654495652
9	3017	20	1.9716653983805
9	3398	21	0.973
9	3781	22	0.973
9	4258	23	0.973
9	4736	24	2.2554772362628
9	5216	25	5.6120472675651
9	5812	26	7.5119842129131
9	6400	27	8.4455276517466
9	6988	28	3.3560730035355
9	7695	29	1.8466200733259
9	8402	30	2.0660268329645
9	9111	31	2.2281549844786
9	9957	32	1.9335288120447
9	10790	33	1.9767670407741
9	11623	34	1.9283950769156
9	12601	35	2.0949799016024
9	13570	36	1.9290667558988
9	14525	37	2.3468857079218
9	15628	38	1.8793040227889
9	16711	39	1.8954681876561
9	17779	40	2.2553467174174
9	19003	41	1.7429567241042
9	20225	42	2.0192482635441
9	21444	43	2.1827359052182
9	22853	44	2.0164367628106
9	24255	45	2.1348602115454
9	25661	46	2.0878872407227
9	27252	47	1.8642059318509
9	28826	48	2.0401536442479
9	30385	49	1.9464315106901
9	32143	50	2.2632042711189
9	33874	51	1.851180617826
9	35598	52	2.2486511283506
9	37532	53	2.0047870143605
9	39447	54	2.1193583924862
9	41363	55	1.9065956504161
9	43498	56	1.8305118457369
9	45630	57	2.2544630998412
9	47773	58	1.9497933768092
9	50124	59	2.199742909699
9	52464	60	1.9416842431598
9	54784	61	2.0340583936544
9	57331	62	1.8947902862501
9	59859	63	2.3236156337703
9	62382	64	1.8116807487081
9	65113	65	2.1067187558746
9	67837	66	2.0440470145686
9	70556	67	1.9485115452067
9	73470	68	2.1878187851485
9	76339	69	1.6791237400594
9	79159	70	2.2755265645048
9	82184	71	2.0225291815531
9	85148	72	1.9399893034582
9	88086	73	2.0029455902709
9	91279	74	0.973
9	94459	75	0.973
9	97661	76	0.973
9	101116	77	0.973
9	104558	78	0.973
9	108009	79	0.973
9	111727	80	0.973
9	115408	81	0.973
9	119059	82	1.1111121928442
9	123007	83	1.1105198636326
9	126944	84	1.1102048131311
9	131017	85	1.1100724261592
9	135238	86	1.1100263596434
9	141289	87	1.1100096669672
9	145480	88	1.1100034420258
10	278	7	2414.8848622198
10	382	8	2414.8848622198
10	487	9	2412.0691307599
10	592	10	2407.3819784434
10	753	11	2402.4639103656
10	915	12	2396.2016479742
10	1078	13	2388.5021761758
10	1301	14	2379.5347220144
10	1524	15	2369.7521497252
10	1747	16	2359.9648396304
10	2042	17	2350.1637192596
10	2339	18	2340.717056727
10	2637	19	2334.4889366638
10	3017	20	2338.0188398167
10	3398	21	2348.6970945761
10	3781	22	2359.0578910074
10	4258	23	2372.1753142256
10	4736	24	2385.9847009928
10	5216	25	2399.0560799135
10	5812	26	2411.469456295
10	6400	27	2420.8240344936
10	6988	28	2428.2511095385
10	7695	29	2431.5096723901
10	8402	30	2433.2168502312
10	9111	31	2435.2011956087
10	9957	32	2437.29147981
10	10790	33	2438.672857787
10	11623	34	2439.5458305131
10	12601	35	2440.5569901068
10	13570	36	2441.5662171456
10	14525	37	2442.5764760413
10	15628	38	2443.5864360537
10	16711	39	2444.5969193554
10	17779	40	2445.6077267987
10	19003	41	2446.6171177449
10	20225	42	2447.6285385494
10	21444	43	2448.6389437378
10	22853	44	2449.6489775468
10	24255	45	2450.659299592
10	25661	46	2449.5461587089
10	27252	47	2448.4337074455
10	28826	48	2447.3207898499
10	30385	49	2446.207873206
10	32143	50	2445.0940501215
10	33874	51	2443.9833638043
10	35598	52	2442.8694501355
10	37532	53	2441.7571938549
10	39447	54	2440.6460889142
10	41363	55	2439.6824932018
10	43498	56	2438.741084579
10	45630	57	2437.8178922307
10	47773	58	2432.628875918
10	50124	59	2422.099758557
10	52464	60	2408.9617932498
10	54784	61	2395.0275024913
10	57331	62	2381.1194986589
10	59859	63	2367.2108877165
10	62382	64	2353.2913366285
10	65113	65	2339.3363710896
10	67837	66	2325.3913249692
10	70556	67	2311.4476897647
10	73470	68	2297.4983647275
10	76339	69	2283.5801531249
10	79159	70	2269.6389171832
10	82184	71	2255.7127677456
10	85148	72	2241.8359768615
10	88086	73	2228.0496562888
10	91279	74	2214.3204117303
10	94459	75	2201.130388199
10	97661	76	2187.9466372953
10	101116	77	2175.8540693277
10	104558	78	2166.8951848735
10	108009	79	2160.0560415246
10	111727	80	2155.1967882412
10	115408	81	2152.0658747323
10	119059	82	2150.332577554
10	123007	83	2149.5013543733
10	126944	84	2149.1536897024
10	131017	85	2149.0206824628
10	135238	86	2148.970440554
10	141289	87	2148.9516145713
10	145480	88	2148.9445340966
11	278	7	1578.4476927174
11	382	8	1578.4476927174
11	487	9	1579.4816146148
11	592	10	1581.3305685576
11	753	11	1586.311893981
11	915	12	1592.6547030602
11	1078	13	1600.4532072712
11	1301	14	1609.5360029312
11	1524	15	1619.4444009606
11	1747	16	1629.3575977338
11	2042	17	1639.2847824143
11	2339	18	1649.4765304932
11	2637	19	1661.4854336744
11	3017	20	1673.8446300924
11	3398	21	1682.7957309801
11	3781	22	1692.1393567109
11	4258	23	1695.6439150097
11	4736	24	1697.4374776948
11	5216	25	1698.6863156371
11	5812	26	1699.860083269
11	6400	27	1700.7446211064
11	6988	28	1701.4003788568
11	7695	29	1709.757081449
11	8402	30	1720.9911797
11	9111	31	1734.0491812732
11	9957	32	1747.8043141738
11	10790	33	1761.6824669717
11	11623	34	1775.5982529195
11	12601	35	1789.5036912933
11	13570	36	1803.3825532272
11	14525	37	1817.2756052278
11	15628	38	1831.1645469936
11	16711	39	1845.0606850199
11	17779	40	1858.9612806309
11	19003	41	1872.8423966132
11	20225	42	1886.7514271513
11	21444	43	1900.646490965
11	22853	44	1914.536447579
11	24255	45	1928.4487420022
11	25661	46	1942.3421864314
11	27252	47	1956.2270235084
11	28826	48	1970.117681019
11	30385	49	1984.0083266487
11	32143	50	1997.9102858361
11	33874	51	2011.7730940934
11	35598	52	2025.6761838896
11	37532	53	2039.5585873295
11	39447	54	2053.4266205495
11	41363	55	2067.3284383547
11	43498	56	2081.2374921273
11	45630	57	2095.1151711773
11	47773	58	2107.8121583294
11	50124	59	2116.6019557538
11	52464	60	2120.9589145361
11	54784	61	2120.4882719275
11	57331	62	2120.0185171831
11	59859	63	2119.548741932
11	62382	64	2119.0785971684
11	65113	65	2118.6072562514
11	67837	66	2118.1362503711
11	70556	67	2117.6652921457
11	73470	68	2117.1941417418
11	76339	69	2116.724042221
11	79159	70	2116.2531650327
11	82184	71	2115.7827974036
11	85148	72	2114.7194869779
11	88086	73	2112.7644801643
11	91279	74	2110.4801872596
11	94459	75	2106.0067454157
11	97661	76	2101.5354309557
11	101116	77	2096.841327128
11	104558	78	2091.5673733056
11	108009	79	2087.5412776032
11	111727	80	2084.6807119204
11	115408	81	2082.8375925729
11	119059	82	2081.8172278916
11	123007	83	2081.3278999301
11	126944	84	2081.1232352275
11	131017	85	2081.0449359659
11	135238	86	2081.0153593477
11	141289	87	2081.0042767888
11	145480	88	2081.0001086248
12	382	8	3.930963162637
12	487	9	5.9263112237273
12	592	10	7.8381960794392
12	753	11	9.790430662247
12	915	12	11.728100012452
12	1078	13	13.629514704516
12	1301	14	13.941568216505
12	1524	15	13.881279769889
12	1747	16	13.897868440901
12	2042	17	13.925429278756
12	2339	18	13.988464023101
12	2637	19	13.968606978769
12	3017	20	13.918509052745
12	3398	21	13.924308654484
12	3781	22	13.951645852409
12	4258	23	13.87926841794
12	4736	24	12.793519969494
12	5216	25	11.84351296104
12	5812	26	7.4038563960913
12	6400	27	8.4727548549238
12	6988	28	10.367830629347
12	7695	29	12.18869854925
12	8402	30	13.961659159465
12	9111	31	13.954832898835
12	9957	32	13.985199820679
12	10790	33	13.894128147855
12	11623	34	13.93747920732
12	12601	35	13.922516686122
12	13570	36	13.936551663636
12	14525	37	13.899921349036
12	15628	38	13.905686459227
12	16711	39	13.974518650502
12	17779	40	13.926188751743
12	19003	41	13.91506882193
12	20225	42	13.902084701743
12	21444	43	13.906688486487
12	22853	44	13.974945872892
12	24255	45	13.897515056985
12	25661	46	13.921723058985
12	27252	47	13.971591069859
12	28826	48	13.925448836959
12	30385	49	13.871581884674
12	32143	50	13.876423048137
12	33874	51	13.873938687814
12	35598	52	13.902598275633
12	37532	53	13.87539361449
12	39447	54	13.972987024514
12	41363	55	13.957628285089
12	43498	56	13.950985880545
12	45630	57	13.943263569523
12	47773	58	13.891897078918
12	50124	59	13.874182712052
12	52464	60	13.982985400616
12	54784	61	13.927164004399
12	57331	62	13.899862960158
12	59859	63	13.960168966714
12	62382	64	13.961850514959
12	65113	65	13.962242161995
12	67837	66	13.925234322341
12	70556	67	13.991972472956
12	73470	68	13.975208927125
12	76339	69	13.946616810667
12	79159	70	13.894927249895
12	82184	71	13.997537077854
12	85148	72	13.937148143742
12	88086	73	13.949254455173
12	91279	74	13.997392567724
12	94459	75	13.892845066143
12	97661	76	11.787824280837
12	101116	77	9.2477227385416
12	104558	78	6.86540096584
12	108009	79	4.7046209588023
12	111727	80	2.8641315859363
12	115408	81	1.435280022115
12	119059	82	0.62780889662581
12	123007	83	0.25782569870556
12	126944	84	0.096787157257653
12	131017	85	0.035636258771308
12	135238	86	0.013565543513394
12	141289	87	0.0050639734029256
12	145480	88	0.0019051442844419
13	487	9	1.9953480610903
13	592	10	1.9118848557118
13	753	11	1.9522345828079
13	915	12	1.9376693502045
13	1078	13	1.9014146920643
13	1301	14	0.31205351198868
13	1524	15	-0.060288446615449
13	1747	16	0.016588671011849
13	2042	17	0.027560837855562
13	2339	18	0.063034744344186
13	2637	19	-0.019857044331729
13	3017	20	-0.050097926023881
13	3398	21	0.0057996017392714
13	3781	22	0.027337197924499
13	4258	23	-0.072377434468363
13	4736	24	-1.0857484484466
13	5216	25	-0.95000700845353
13	5812	26	-4.439656564949
13	6400	27	1.0688984588324
13	6988	28	1.8950757744233
13	7695	29	1.8208679199032
13	8402	30	1.7729606102145
13	9111	31	-0.0068262606300422
13	9957	32	0.03036692184396
13	10790	33	-0.091071672823745
13	11623	34	0.043351059465204
13	12601	35	-0.01496252119774
13	13570	36	0.014034977513365
13	14525	37	-0.036630314600188
13	15628	38	0.0057651101914225
13	16711	39	0.068832191275433
13	17779	40	-0.048329898759256
13	19003	41	-0.01111992981285
13	20225	42	-0.012984120186884
13	21444	43	0.0046037847432316
13	22853	44	0.068257386405021
13	24255	45	-0.077430815906265
13	25661	46	0.02420800199965
13	27252	47	0.049868010873906
13	28826	48	-0.046142232900019
13	30385	49	-0.053866952285171
13	32143	50	0.0048411634634249
13	33874	51	-0.0024843603232867
13	35598	52	0.028659587819128
13	37532	53	-0.027204661143477
13	39447	54	0.09759341002442
13	41363	55	-0.015358739425428
13	43498	56	-0.0066424045432356
13	45630	57	-0.007722311022226
13	47773	58	-0.051366490605288
13	50124	59	-0.017714366866276
13	52464	60	0.10880268856417
13	54784	61	-0.055821396217215
13	57331	62	-0.027301044240593
13	59859	63	0.06030600655591
13	62382	64	0.0016815482452515
13	65113	65	0.00039164703572148
13	67837	66	-0.037007839654107
13	70556	67	0.066738150615711
13	73470	68	-0.0167635458312
13	76339	69	-0.028592116457874
13	79159	70	-0.051689560771921
13	82184	71	0.10260982795851
13	85148	72	-0.060388934111689
13	88086	73	0.01210631143069
13	91279	74	0.048138112551532
13	94459	75	-0.10454750158125
13	97661	76	-2.1050207853061
13	101116	77	-2.5401015422956
13	104558	78	-2.3823217727016
13	108009	79	-2.1607800070377
13	111727	80	-1.840489372866
13	115408	81	-1.4288515638212
13	119059	82	-0.80747112548923
13	123007	83	-0.36998319792025
13	126944	84	-0.1610385414479
13	131017	85	-0.061150898486345
13	135238	86	-0.022070715257914
13	141289	87	-0.0085015701104686
13	145480	88	-0.0031588291184837
14	487	9	4.2649508166984
14	592	10	5.1441608835298
14	753	11	6.2752675611406
14	915	12	7.3015557220543
14	1078	13	8.2469806235914
14	1301	14	3.0813423760871
14	1524	15	1.825038103975
14	1747	16	2.0839753981971
14	2042	17	2.1237162576214
14	2339	18	2.2501690272635
14	2637	19	1.9687844028223
14	3017	20	1.8624692368163
14	3398	21	2.0505690853877
14	3781	22	2.1258147014109
14	4258	23	1.7844264067381
14	4736	24	0.973
14	5216	25	0.973
14	5812	26	0.973
14	6400	27	3.7575341079103
14	6988	28	6.4482222684255
14	7695	29	7.2140195323343
14	8402	30	8.0005078452345
14	9111	31	2.0112657729674
14	9957	32	2.1396802881933
14	10790	33	1.7230808185304
14	11623	34	2.1780640158967
14	12601	35	1.980720158986
14	13570	36	2.0794954629949
14	14525	37	1.9059152732614
14	15628	38	2.0485298427513
14	16711	39	2.2680539427787
14	17779	40	1.8690933945628
14	19003	41	1.9928741031296
14	20225	42	1.9853406570184
14	21444	43	2.0447410785649
14	22853	44	2.2661688405632
14	24255	45	1.7690384486571
14	25661	46	2.1120645090544
14	27252	47	2.2038504354464
14	28826	48	1.8763684319447
14	30385	49	1.8456610488087
14	32143	50	2.0424227277346
14	33874	51	2.0176736696174
14	35598	52	2.1249196677245
14	37532	53	1.9351566644326
14	39447	54	2.3647248781457
14	41363	55	1.9828454643184
14	43498	56	2.0114971183472
14	45630	57	2.007091813677
14	47773	58	1.8558336695686
14	50124	59	1.9667740746073
14	52464	60	2.4037578966905
14	54784	61	1.844036691971
14	57331	62	1.9371616602798
14	59859	63	2.2376623461065
14	62382	64	2.0405988072341
14	65113	65	2.0362986285583
14	67837	66	1.9070037954822
14	70556	67	2.2630700095878
14	73470	68	1.9798474403324
14	76339	69	1.9372818212763
14	79159	70	1.8550225742329
14	82184	71	2.3847397299678
14	85148	72	1.8295794064806
14	88086	73	2.0743518631084
14	91279	74	2.2009680002035
14	94459	75	1.6778590032699
14	97661	76	0.973
14	101116	77	0.973
14	104558	78	0.973
14	108009	79	0.973
14	111727	80	0.973
14	115408	81	0.973
14	119059	82	0.973
14	123007	83	0.973
14	126944	84	0.973
14	131017	85	1.1111939126964
14	135238	86	1.1105822463489
14	141289	87	1.1102339106232
14	145480	88	1.1100904538168
15	592	10	2414.8652957816
15	753	11	2414.8652957816
15	915	12	2411.9402292009
15	1078	13	2407.1594214574
15	1301	14	2402.0350675649
15	1524	15	2395.5354035812
15	1747	16	2387.5598131203
15	2042	17	2378.2983909701
15	2339	18	2368.4972038758
15	2637	19	2358.719633554
15	3017	20	2348.9248444787
15	3398	21	2339.614370346
15	3781	22	2334.1997176057
15	4258	23	2339.4193692133
15	4736	24	2350.023330241
15	5216	25	2360.3662725991
15	5812	26	2373.90233667
15	6400	27	2387.7152259793
15	6988	28	2400.5914429313
15	7695	29	2412.9398871803
15	8402	30	2421.7139854309
15	9111	31	2429.0882121673
15	9957	32	2431.6639768599
15	10790	33	2433.4302155024
15	11623	34	2435.4611475593
15	12601	35	2437.5533698815
15	13570	36	2438.7684759141
15	14525	37	2439.671540139
15	15628	38	2440.6813741141
15	16711	39	2441.6917844916
15	17779	40	2442.7022041357
15	19003	41	2443.7124593587
15	20225	42	2444.7229332504
15	21444	43	2445.7337078364
15	22853	44	2446.7459111849
15	24255	45	2447.757486716
15	25661	46	2448.7683903823
15	27252	47	2449.7777371067
15	28826	48	2450.5176811377
15	30385	49	2449.4057673637
15	32143	50	2448.2921364765
15	33874	51	2447.1808208324
15	35598	52	2446.0691226661
15	37532	53	2444.9566500478
15	39447	54	2443.8447802094
15	41363	55	2442.731477023
15	43498	56	2441.6197022425
15	45630	57	2440.5080080784
15	47773	58	2439.5670555097
15	50124	59	2438.6556009268
15	52464	60	2437.5062560235
15	54784	61	2431.5722499692
15	57331	62	2420.527699944
15	59859	63	2407.2382113171
15	62382	64	2393.3269784888
15	65113	65	2379.3955530388
15	67837	66	2365.4745847809
15	70556	67	2351.529199079
15	73470	68	2337.6079130118
15	76339	69	2323.6725767179
15	79159	70	2309.7385225614
15	82184	71	2295.8080973643
15	85148	72	2281.8952010303
15	88086	73	2267.9654732505
15	91279	74	2254.0466482575
15	94459	75	2240.1839215464
15	97661	76	2226.3952670011
15	101116	77	2212.7433891206
15	104558	78	2199.5532363574
15	108009	79	2186.6275330838
15	111727	80	2175.9886347088
15	115408	81	2168.1516067662
15	119059	82	2162.2726257491
15	123007	83	2158.2011129982
15	126944	84	2155.6801527158
15	131017	85	2154.3186951779
15	135238	86	2153.678918281
15	141289	87	2153.4155323968
15	145480	88	2153.3141532131
16	592	10	1578.4548774119
16	753	11	1578.4548774119
16	915	12	1579.5289465943
16	1078	13	1581.5559881236
16	1301	14	1586.7462526578
16	1524	15	1593.3295168448
16	1747	16	1601.4076912217
16	2042	17	1610.7882359559
16	2339	18	1620.7154882178
16	2637	19	1630.6188199436
16	3017	20	1640.5395918936
16	3398	21	1650.8881406859
16	3781	22	1663.2272230769
16	4258	23	1674.9756418047
16	4736	24	1683.991763521
16	5216	25	1693.3192880014
16	5812	26	1695.9020503219
16	6400	27	1697.6139621651
16	6988	28	1698.8314944636
16	7695	29	1699.9991223291
16	8402	30	1700.8287719106
16	9111	31	1701.8119543158
16	9957	32	1710.77248332
16	10790	33	1722.3952316754
16	11623	34	1735.7597972872
16	12601	35	1749.5276840087
16	13570	36	1763.4065813264
16	14525	37	1777.3270081691
16	15628	38	1791.2142166747
16	16711	39	1805.1093518483
16	17779	40	1819.0046144547
16	19003	41	1832.8976159496
16	20225	42	1846.7936245678
16	21444	43	1860.6937683271
16	22853	44	1874.6135603888
16	24255	45	1888.5247187214
16	25661	46	1902.4266375881
16	27252	47	1916.3071454344
16	28826	48	1930.2163243052
16	30385	49	1944.0944528161
16	32143	50	1957.9940131316
16	33874	51	1971.8646762054
16	35598	52	1985.7401136523
16	37532	53	1999.6252172682
16	39447	54	2013.5027974071
16	41363	55	2027.3982675895
16	43498	56	2041.2746612821
16	45630	57	2055.1500487765
16	47773	58	2069.0339985425
16	50124	59	2082.9232102502
16	52464	60	2096.7668430749
16	54784	61	2109.1502521159
16	57331	62	2117.3046830418
16	59859	63	2120.90069908
16	62382	64	2120.4308352731
16	65113	65	2119.9602894429
16	67837	66	2119.4900968131
16	70556	67	2119.0190794626
16	73470	68	2118.5488760993
16	76339	69	2118.0781981768
16	79159	70	2117.6075635599
16	82184	71	2117.1370515134
16	85148	72	2116.6671315199
16	88086	73	2116.1966430303
16	91279	74	2115.7265227912
16	94459	75	2114.4852127647
16	97661	76	2112.5298749758
16	101116	77	2109.945334618
16	104558	78	2105.4718489451
16	108009	79	2101.0880522262
16	111727	80	2096.9205436436
16	115408	81	2092.3070090357
16	119059	82	2088.846145737
16	123007	83	2086.4493104676
16	126944	84	2084.9652609546
16	131017	85	2084.1637923988
16	135238	86	2083.7871658411
16	141289	87	2083.6321147298
16	145480	88	2083.5724344049
17	753	11	4.0076977833542
17	915	12	6.1677344774264
17	1078	13	8.1549676716625
17	1301	14	10.178332106699
17	1524	15	12.262859039094
17	1747	16	13.909239285488
17	2042	17	13.972104677679
17	2339	18	13.964405047395
17	2637	19	13.904001857305
17	3017	20	13.959390929798
17	3398	21	13.878038117993
17	3781	22	13.946876353603
17	4258	23	13.944667257406
17	4736	24	13.919344021892
17	5216	25	13.927560248445
17	5812	26	13.871213583788
17	6400	27	12.691334807668
17	6988	28	11.253789109264
17	7695	29	6.8021452137647
17	8402	30	8.5806848426844
17	9111	31	10.511503565412
17	9957	32	12.634297992723
17	10790	33	13.965718502484
17	11623	34	13.984844662666
17	12601	35	13.956789441942
17	13570	36	13.956542154332
17	14525	37	13.917345386401
17	15628	38	13.978046209081
17	16711	39	13.982312166321
17	17779	40	13.915473192113
17	19003	41	13.879970237834
17	20225	42	13.897895857247
17	21444	43	13.999869057706
17	22853	44	13.978634591533
17	24255	45	13.942230677728
17	25661	46	13.955766034983
17	27252	47	13.950300372976
17	28826	48	13.917481608128
17	30385	49	13.942320762996
17	32143	50	13.893100212866
17	33874	51	13.91633811252
17	35598	52	13.928179549885
17	37532	53	13.968941585214
17	39447	54	13.947614409933
17	41363	55	13.993828555658
17	43498	56	13.915365449623
17	45630	57	13.876728287677
17	47773	58	13.918426910553
17	50124	59	13.974088552413
17	52464	60	13.92781890474
17	54784	61	13.871840020602
17	57331	62	13.950818891171
17	59859	63	13.896373478309
17	62382	64	13.98123223257
17	65113	65	13.934642261642
17	67837	66	13.995758003502
17	70556	67	13.879077432866
17	73470	68	13.899420192223
17	76339	69	13.964884717481
17	79159	70	13.997399434138
17	82184	71	13.963054893557
17	85148	72	13.99507131309
17	88086	73	13.959758597296
17	91279	74	13.999156328384
17	94459	75	13.969890658425
17	97661	76	13.980162032277
17	101116	77	13.896995161234
17	104558	78	12.895918457595
17	108009	79	10.316482094486
17	111727	80	8.1005376777642
17	115408	81	5.8820015731492
17	119059	82	3.8731803985188
17	123007	83	2.2660461003021
17	126944	84	1.1103220699793
17	131017	85	0.49973008570276
17	135238	86	0.19564597656583
17	141289	87	0.072656340015803
17	145480	88	0.028795506445248
18	915	12	2.1600366940722
18	1078	13	1.9872331942362
18	1301	14	2.0233644350362
18	1524	15	2.0845269323955
18	1747	16	1.6463802463939
18	2042	17	0.062865392190869
18	2339	18	-0.0076996302837493
18	2637	19	-0.060403190089856
18	3017	20	0.055389072492252
18	3398	21	-0.081352811804972
18	3781	22	0.068838235610166
18	4258	23	-0.0022090961970385
18	4736	24	-0.025323235513643
18	5216	25	0.0082162265526122
18	5812	26	-0.056346664656886
18	6400	27	-1.1798787761197
18	6988	28	-1.4375456984038
18	7695	29	-4.4516438954996
18	8402	30	1.7785396289197
18	9111	31	1.9308187227277
18	9957	32	2.1227944273106
18	10790	33	1.3314205097611
18	11623	34	0.01912616018206
18	12601	35	-0.028055220723617
18	13570	36	-0.00024728761054682
18	14525	37	-0.039196767930406
18	15628	38	0.060700822679792
18	16711	39	0.0042659572395483
18	17779	40	-0.06683897420764
18	19003	41	-0.035502954279073
18	20225	42	0.017925619413145
18	21444	43	0.10197320045903
18	22853	44	-0.021234466172753
18	24255	45	-0.036403913805263
18	25661	46	0.013535357255023
18	27252	47	-0.0054656620067544
18	28826	48	-0.032818764848635
18	30385	49	0.024839154868388
18	32143	50	-0.049220550130123
18	33874	51	0.023237899653614
18	35598	52	0.011841437364929
18	37532	53	0.040762035329827
18	39447	54	-0.021327175281478
18	41363	55	0.046214145724662
18	43498	56	-0.078463106034324
18	45630	57	-0.038637161946388
18	47773	58	0.041698622875845
18	50124	59	0.055661641859915
18	52464	60	-0.046269647672306
18	54784	61	-0.055978884138167
18	57331	62	0.078978870569262
18	59859	63	-0.054445412862115
18	62382	64	0.084858754260932
18	65113	65	-0.046589970928617
18	67837	66	0.061115741860121
18	70556	67	-0.11668057063594
18	73470	68	0.0203427593573
18	76339	69	0.065464525257703
18	79159	70	0.032514716656879
18	82184	71	-0.034344540580641
18	85148	72	0.032016419533175
18	88086	73	-0.035312715794426
18	91279	74	0.039397731088101
18	94459	75	-0.029265669959132
18	97661	76	0.010271373852158
18	101116	77	-0.083166871042923
18	104558	78	-1.0010767036393
18	108009	79	-2.5794363631086
18	111727	80	-2.2159444167219
18	115408	81	-2.218536104615
18	119059	82	-2.0088211746303
18	123007	83	-1.6071342982168
18	126944	84	-1.1557240303228
18	131017	85	-0.61059198427652
18	135238	86	-0.30408410913693
18	141289	87	-0.12298963655003
18	145480	88	-0.043860833570555
19	915	12	4.6399364442395
19	1078	13	5.459099048015
19	1301	14	6.6616810382017
19	1524	15	8.0324172249288
19	1747	16	7.5484463594625
19	2042	17	2.247674957111
19	2339	18	2.0092894812461
19	2637	19	1.8266349661585
19	3017	20	2.2210298717235
19	3398	21	1.7543037306746
19	3781	22	2.264789170887
19	4258	23	2.0257606197441
19	4736	24	1.9456524984792
19	5216	25	2.059016748537
19	5812	26	1.8373388380236
19	6400	27	0.973
19	6988	28	0.973
19	7695	29	0.973
19	8402	30	5.2602175796137
19	9111	31	6.6156566027659
19	9957	32	8.3694083781091
19	10790	33	6.5165491496521
19	11623	34	2.1017560319966
19	12601	35	1.9400571066544
19	13570	36	2.0335662245147
19	14525	37	1.8989280401226
19	15628	38	2.2410813776431
19	16711	39	2.0514099723484
19	17779	40	1.8060532207838
19	19003	41	1.9078333116417
19	20225	42	2.0884562634303
19	21444	43	2.3828885778754
19	22853	44	1.9651224554136
19	24255	45	1.910615850939
19	25661	46	2.0798426520326
19	27252	47	2.015384407742
19	28826	48	1.9203331804895
19	30385	49	2.1164070517746
19	32143	50	1.8631262853673
19	33874	51	2.108230627045
19	35598	52	2.0712498573739
19	37532	53	2.1728920736305
19	39447	54	1.9617970432444
19	41363	55	2.1940726512002
19	43498	56	1.7670612526642
19	45630	57	1.8970499029483
19	47773	58	2.1703787731
19	50124	59	2.2236475952785
19	52464	60	1.876156120652
19	54784	61	1.8386234882413
19	57331	62	2.2993516664104
19	59859	63	1.8459222947006
19	62382	64	2.3228538313892
19	65113	65	1.8757004712267
19	67837	66	2.2445546956586
19	70556	67	1.6362226447506
19	73470	68	2.096714827559
19	76339	69	2.2555743425322
19	79159	70	2.1482652379368
19	82184	71	1.9194912088098
19	85148	72	2.1463276308042
19	88086	73	1.9159241804067
19	91279	74	2.1716810577018
19	94459	75	1.9372331757794
19	97661	76	2.0714211235731
19	101116	77	1.7497841862042
19	104558	78	0.973
19	108009	79	0.973
19	111727	80	0.973
19	115408	81	0.973
19	119059	82	0.973
19	123007	83	0.973
19	126944	84	0.973
19	131017	85	0.973
19	135238	86	0.973
19	141289	87	0.973
19	145480	88	1.1110847156619
20	1078	13	2414.9020294819
20	1301	14	2414.9020294819
20	1524	15	2411.9226306152
20	1747	16	2407.1557433844
20	2042	17	2402.1104710221
20	2339	18	2395.7699587477
20	2637	19	2388.0304223568
20	3017	20	2379.4738079484
20	3398	21	2370.893774931
20	3781	22	2362.3077945379
20	4258	23	2353.7435980395
20	4736	24	2345.1609503828
20	5216	25	2337.382531011
20	5812	26	2333.9513923901
20	6400	27	2339.5342791209
20	6988	28	2348.8453277851
20	7695	29	2357.9087556405
20	8402	30	2368.8976739903
20	9111	31	2380.9775286298
20	9957	32	2393.1030453129
20	10790	33	2405.2335576123
20	11623	34	2416.5418459401
20	12601	35	2423.9663700609
20	13570	36	2430.570008137
20	14525	37	2432.1000471369
20	15628	38	2433.9002697327
20	16711	39	2435.9543662666
20	17779	40	2437.9596728822
20	19003	41	2438.9494181712
20	20225	42	2439.9070256213
20	21444	43	2440.9176562928
20	22853	44	2441.9269052453
20	24255	45	2442.9366141059
20	25661	46	2443.9464281293
20	27252	47	2444.9573541252
20	28826	48	2445.9691156872
20	30385	49	2446.979716951
20	32143	50	2447.9896090399
20	33874	51	2448.9998733379
20	35598	52	2450.0085675253
20	37532	53	2450.2645866362
20	39447	54	2449.1499465979
20	41363	55	2448.0369973981
20	43498	56	2446.9233345203
20	45630	57	2445.8120863364
20	47773	58	2444.7009855164
20	50124	59	2443.5879624323
20	52464	60	2442.4739204658
20	54784	61	2441.3600381962
20	57331	62	2440.2864050268
20	59859	63	2439.3445139695
20	62382	64	2438.5901630576
20	65113	65	2436.8932832642
20	67837	66	2429.488703159
20	70556	67	2417.5025738811
20	73470	68	2403.9129781366
20	76339	69	2389.9861979192
20	79159	70	2376.0739265668
20	82184	71	2362.1500415469
20	85148	72	2348.2060115275
20	88086	73	2334.2734054149
20	91279	74	2320.3213743683
20	94459	75	2306.390282625
20	97661	76	2292.4858088302
20	101116	77	2278.5482186148
20	104558	78	2264.6132597643
20	108009	79	2250.6824459058
20	111727	80	2236.8438325393
20	115408	81	2223.0330148104
20	119059	82	2209.5218306775
20	123007	83	2196.3177326269
20	126944	84	2183.693116775
20	131017	85	2174.0416856013
20	135238	86	2167.2818817057
20	141289	87	2162.71175364
20	145480	88	2159.9769870267
21	1078	13	1578.4413889889
21	1301	14	1578.4413889889
21	1524	15	1579.5354087027
21	1747	16	1581.5597135043
21	2042	17	1586.6698793434
21	2339	18	1593.0919447746
21	2637	19	1600.9310288979
21	3017	20	1609.5977004888
21	3398	21	1618.2880919036
21	3781	22	1626.984507191
21	4258	23	1635.6588583943
21	4736	24	1644.3518980779
21	5216	25	1653.7452424029
21	5812	26	1665.1186078088
21	6400	27	1675.0684384657
21	6988	28	1682.929411401
21	7695	29	1691.1030376544
21	8402	30	1695.1540113101
21	9111	31	1696.8415124407
21	9957	32	1698.123416462
21	10790	33	1699.2704374064
21	11623	34	1700.3397115832
21	12601	35	1700.9751795586
21	13570	36	1703.8619754324
21	14525	37	1713.6420474732
21	15628	38	1725.4884275207
21	16711	39	1739.0054271705
21	17779	40	1752.7795728892
21	19003	41	1766.6691963989
21	20225	42	1780.5653979182
21	21444	43	1794.4635625677
21	22853	44	1808.342725859
21	24255	45	1822.2282137927
21	25661	46	1836.1151479203
21	27252	47	1850.0173738636
21	28826	48	1863.9310904881
21	30385	49	1877.8288507257
21	32143	50	1891.7168584093
21	33874	51	1905.6099847034
21	35598	52	1919.4815188777
21	37532	53	1933.3752725068
21	39447	54	1947.287428339
21	41363	55	1961.1784803104
21	43498	56	1975.07843991
21	45630	57	1988.9482609928
21	47773	58	2002.8162427824
21	50124	59	2016.7082169261
21	52464	60	2030.6129080458
21	54784	61	2044.5156059386
21	57331	62	2058.405807049
21	59859	63	2072.3219886608
21	62382	64	2086.2172475774
21	65113	65	2100.0155986995
21	67837	66	2111.7128415443
21	70556	67	2118.6569472738
21	73470	68	2120.7883864809
21	76339	69	2120.3179975469
21	79159	70	2119.8480986627
21	82184	71	2119.3778075166
21	85148	72	2118.9068359565
21	88086	73	2118.436250248
21	91279	74	2117.965008446
21	94459	75	2117.4944738867
21	97661	76	2117.0248383721
21	101116	77	2116.5540843215
21	104558	78	2116.0834191469
21	108009	79	2115.6128939744
21	111727	80	2114.0115623279
21	115408	81	2112.0530816279
21	119059	82	2108.8527319925
21	123007	83	2104.3745167274
21	126944	84	2100.0928348433
21	131017	85	2095.774405445
21	135238	86	2091.7950156257
21	141289	87	2089.1046533929
21	145480	88	2087.4947394682
22	1301	14	4.1202440707026
22	1524	15	6.098204819389
22	1747	16	7.9892263333931
22	2042	17	9.9395148638858
22	2339	18	11.888312638128
22	2637	19	12.215156767303
22	3017	20	12.204687935296
22	3398	21	12.224623291104
22	3781	22	12.210776680999
22	4258	23	12.179672799767
22	4736	24	12.160016026092
22	5216	25	12.139849843977
22	5812	26	12.143721937142
22	6400	27	12.197962211408
22	6988	28	12.182525644068
22	7695	29	12.239106989266
22	8402	30	12.235862109773
22	9111	31	12.230306803957
22	9957	32	12.179537976573
22	10790	33	9.6862829881538
22	11623	34	6.6424673210172
22	12601	35	8.8478549035121
22	13570	36	10.859035527671
22	14525	37	12.909402498856
22	15628	38	13.992245385351
22	16711	39	13.943547738914
22	17779	40	13.916770352069
22	19003	41	13.945535122917
22	20225	42	13.906703865982
22	21444	43	13.929781103753
22	22853	44	13.945612282939
22	24255	45	13.915959525181
22	25661	46	13.967522231955
22	27252	47	13.972525620006
22	28826	48	13.883536923684
22	30385	49	13.909812615521
22	32143	50	13.926507747294
22	33874	51	13.897951097498
22	35598	52	13.93396450304
22	37532	53	13.967009024217
22	39447	54	13.893721483571
22	41363	55	13.88568516843
22	43498	56	13.927406547926
22	45630	57	13.918185825639
22	47773	58	13.942741125419
22	50124	59	13.888825567171
22	52464	60	13.956811681101
22	54784	61	13.967852384013
22	57331	62	13.917130999181
22	59859	63	13.962056111419
22	62382	64	13.973261172024
22	65113	65	13.976665152721
22	67837	66	13.929094264333
22	70556	67	13.988442988638
22	73470	68	13.963501574658
22	76339	69	13.904512311171
22	79159	70	13.881385968712
22	82184	71	13.955823229789
22	85148	72	13.91319160128
22	88086	73	13.978148939102
22	91279	74	13.952216081487
22	94459	75	13.876740762778
22	97661	76	13.930089543043
22	101116	77	13.916144249656
22	104558	78	13.998410794288
22	108009	79	13.980069159993
22	111727	80	13.95930730181
22	115408	81	13.968128457202
22	119059	82	13.906429463343
22	123007	83	12.184502506689
22	126944	84	9.3192249987393
22	131017	85	6.6715766769864
22	135238	86	4.2657116295168
22	141289	87	2.3706573523306
22	145480	88	1.1450237149984
23	1524	15	1.9779607486865
23	1747	16	1.8910215140041
23	2042	17	1.9502885304927
23	2339	18	1.9487977742427
23	2637	19	0.32684412917498
23	3017	20	-0.010468832007609
23	3398	21	0.019935355808121
23	3781	22	-0.013846610104666
23	4258	23	-0.031103881231974
23	4736	24	-0.019656773675234
23	5216	25	-0.020166182115208
23	5812	26	0.0038720931648282
23	6400	27	0.054240274266339
23	6988	28	-0.015436567340512
23	7695	29	0.056581345198211
23	8402	30	-0.0032448794925592
23	9111	31	-0.0055553058162339
23	9957	32	-0.050768827383871
23	10790	33	-2.4932549884193
23	11623	34	-3.0438156671366
23	12601	35	2.2053875824949
23	13570	36	2.0111806241586
23	14525	37	2.0503669711854
23	15628	38	1.082842886495
23	16711	39	-0.048697646437214
23	17779	40	-0.026777386844623
23	19003	41	0.028764770848211
23	20225	42	-0.038831256935373
23	21444	43	0.023077237771357
23	22853	44	0.015831179185771
23	24255	45	-0.02965275775874
23	25661	46	0.051562706774567
23	27252	47	0.0050033880514082
23	28826	48	-0.088988696322776
23	30385	49	0.026275691837073
23	32143	50	0.016695131773595
23	33874	51	-0.028556649796665
23	35598	52	0.036013405541889
23	37532	53	0.033044521177652
23	39447	54	-0.07328754064627
23	41363	55	-0.0080363151407798
23	43498	56	0.041721379496158
23	45630	57	-0.009220722287429
23	47773	58	0.024555299780332
23	50124	59	-0.053915558247827
23	52464	60	0.067986113929656
23	54784	61	0.01104070291156
23	57331	62	-0.050721384831705
23	59859	63	0.044925112237689
23	62382	64	0.011205060605425
23	65113	65	0.0034039806970405
23	67837	66	-0.047570888388437
23	70556	67	0.059348724305165
23	73470	68	-0.024941413979978
23	76339	69	-0.058989263486584
23	79159	70	-0.023126342459582
23	82184	71	0.07443726107711
23	85148	72	-0.042631628508678
23	88086	73	0.064957337821832
23	91279	74	-0.025932857615407
23	94459	75	-0.075475318708923
23	97661	76	0.053348780265079
23	101116	77	-0.013945293386932
23	104558	78	0.082266544632148
23	108009	79	-0.018341634294485
23	111727	80	-0.02076185818296
23	115408	81	0.0088211553916349
23	119059	82	-0.061698993858881
23	123007	83	-1.7219269566543
23	126944	84	-2.8652775079497
23	131017	85	-2.6476483217528
23	135238	86	-2.4058650474696
23	141289	87	-1.8950542771863
23	145480	88	-1.2256336373321
24	1524	15	4.3320714987557
24	1747	16	5.183486961616
24	2042	17	6.3519610936481
24	2339	18	7.4221751260776
24	2637	19	2.8298121443499
24	3017	20	1.8359013100526
24	3398	21	1.9272118037584
24	3781	22	1.8264910266966
24	4258	23	1.7731570813911
24	4736	24	1.8050958468359
24	5216	25	1.8019031629654
24	5812	26	1.8725806391293
24	6400	27	2.0255422754474
24	6988	28	1.8193896864997
24	7695	29	2.0366725650512
24	8402	30	1.8599189826534
24	9111	31	1.8526149529095
24	9957	32	1.7154241454235
24	10790	33	0.973
24	11623	34	0.973
24	12601	35	6.303427561984
24	13570	36	7.0154445701984
24	14525	37	8.3105242583869
24	15628	38	5.6895407911334
24	16711	39	1.8694269918782
24	17779	40	1.940528745875
24	19003	41	2.1299480592744
24	20225	42	1.8991694406835
24	21444	43	2.1091372507868
24	22853	44	2.0864880630902
24	24255	45	1.9308080812489
24	25661	46	2.2090898398184
24	27252	47	2.0528811368149
24	28826	48	1.7292056532406
24	30385	49	2.1177127068995
24	32143	50	2.0873649665686
24	33874	51	1.9327741224938
24	35598	52	2.1530281120875
24	37532	53	2.1466978352857
24	39447	54	1.7825965253946
24	41363	55	2.0002810933209
24	43498	56	2.1714609797662
24	45630	57	1.999553894506
24	47773	58	2.1154986829051
24	50124	59	1.8470270282863
24	52464	60	2.2631030576132
24	54784	61	2.0727204260443
24	57331	62	1.8602543209442
24	59859	63	2.1861282607859
24	62382	64	2.0738417857687
24	65113	65	2.0479224526271
24	67837	66	1.8719038420292
24	70556	67	2.237740187174
24	73470	68	1.9511766336835
24	76339	69	1.8314175593046
24	79159	70	1.9493699794006
24	82184	71	2.2846833100323
24	85148	72	1.8870266347629
24	88086	73	2.2554324657204
24	91279	74	1.9467570144346
24	94459	75	1.7738534084078
24	97661	76	2.2107965887972
24	101116	77	1.9835051352325
24	104558	78	2.3162204831367
24	108009	79	1.9750085314323
24	111727	80	1.9648337724802
24	115408	81	2.0652777009624
24	119059	82	1.8225039990261
24	123007	83	0.973
24	126944	84	0.973
24	131017	85	0.973
24	135238	86	0.973
24	141289	87	0.973
24	145480	88	0.973
25	1747	16	2414.866372544
25	2042	17	2414.866372544
25	2339	18	2411.9174920589
25	2637	19	2407.1873548935
25	3017	20	2402.1033929951
25	3398	21	2395.6770685576
25	3781	22	2387.9239549194
25	4258	23	2378.7440047435
25	4736	24	2368.9560721758
25	5216	25	2359.1622850237
25	5812	26	2349.3790714815
25	6400	27	2340.0066479368
25	6988	28	2334.2982135796
25	7695	29	2338.9199148722
25	8402	30	2349.5394145362
25	9111	31	2359.6285321664
25	9957	32	2372.2737052037
25	10790	33	2385.1868441795
25	11623	34	2397.5486702835
25	12601	35	2407.0889696613
25	13570	36	2415.9658388555
25	14525	37	2423.647086352
25	15628	38	2430.5697055
25	16711	39	2432.1309365664
25	17779	40	2433.9420996767
25	19003	41	2436.0121670167
25	20225	42	2438.0026650226
25	21444	43	2438.973087457
25	22853	44	2439.9357083738
25	24255	45	2440.9457836029
25	25661	46	2441.9557050534
25	27252	47	2442.966328533
25	28826	48	2443.9770825638
25	30385	49	2444.9875938372
25	32143	50	2445.9973880129
25	33874	51	2447.0079984484
25	35598	52	2448.0195114657
25	37532	53	2449.0300190145
25	39447	54	2450.0409876643
25	41363	55	2450.2291497608
25	43498	56	2449.1158151244
25	45630	57	2448.0031307412
25	47773	58	2446.8896077783
25	50124	59	2445.7771886681
25	52464	60	2444.6627922727
25	54784	61	2443.5487240007
25	57331	62	2442.4356510476
25	59859	63	2441.3226709429
25	62382	64	2440.2525785718
25	65113	65	2439.3108728111
25	67837	66	2438.5962522177
25	70556	67	2436.7990822749
25	73470	68	2429.1662416559
25	76339	69	2417.0518166292
25	79159	70	2403.4340603166
25	82184	71	2389.5047204611
25	85148	72	2375.5916553084
25	88086	73	2361.6469742537
25	91279	74	2347.7140670773
25	94459	75	2333.8022433744
25	97661	76	2319.8734200448
25	101116	77	2305.9398448825
25	104558	78	2292.0082472251
25	108009	79	2278.0813544713
25	111727	80	2264.1467494853
25	115408	81	2250.2047425436
25	119059	82	2236.387523783
25	123007	83	2222.5732599339
25	126944	84	2209.0995266479
25	131017	85	2196.4179653845
25	135238	86	2185.8774806916
25	141289	87	2177.5634707001
25	145480	88	2171.7217195107
26	1747	16	1578.4544820301
26	2042	17	1578.4544820301
26	2339	18	1579.5372955538
26	2637	19	1581.5276954006
26	3017	20	1586.6770484103
26	3398	21	1593.1860297397
26	3781	22	1601.0388657451
26	4258	23	1610.3368905932
26	4736	24	1620.2507178467
26	5216	25	1630.1704749865
26	5812	26	1640.0795225166
26	6400	27	1650.3859643145
26	6988	28	1662.6340421
26	7695	29	1674.572302388
26	8402	30	1683.5553562185
26	9111	31	1692.6539752008
26	9957	32	1695.658621354
26	10790	33	1697.3425149294
26	11623	34	1698.5437799906
26	12601	35	1699.4458790058
26	13570	36	1700.285246267
26	14525	37	1700.9566909699
26	15628	38	1703.861074903
26	16711	39	1713.8453156259
26	17779	40	1725.7636898225
26	19003	41	1739.3857854959
26	20225	42	1753.170717068
26	21444	43	1767.0707531869
26	22853	44	1780.9598423252
26	24255	45	1794.8503685482
26	25661	46	1808.7387800114
26	27252	47	1822.6368457591
26	28826	48	1836.5367068434
26	30385	49	1850.4332295349
26	32143	50	1864.3198907189
26	33874	51	1878.2177770855
26	35598	52	1892.128075731
26	37532	53	1906.0245472016
26	39447	54	1919.9273597188
26	41363	55	1933.8175707525
26	43498	56	1947.7134334734
26	45630	57	1961.6011801884
26	47773	58	1975.4993934687
26	50124	59	1989.3838292314
26	52464	60	2003.2929440839
26	54784	61	2017.1979635302
26	57331	62	2031.0905601038
26	59859	63	2044.9819978084
26	62382	64	2058.9055836303
26	65113	65	2072.8190275338
26	67837	66	2086.7368559008
26	70556	67	2100.5148639437
26	73470	68	2112.1094423961
26	76339	69	2118.8584406646
26	79159	70	2120.7722106203
26	82184	71	2120.3017352335
26	85148	72	2119.8318095375
26	88086	73	2119.3608159879
26	91279	74	2118.8902201112
26	94459	75	2118.4203363461
26	97661	76	2117.9498784048
26	101116	77	2117.4792599659
26	104558	78	2117.0087083196
26	108009	79	2116.5383155849
26	111727	80	2116.0676623629
26	115408	81	2115.596759134
26	119059	82	2113.9468542188
26	123007	83	2111.9878848325
26	126944	84	2108.709506128
26	131017	85	2104.4085110119
26	135238	86	2100.8336693775
26	141289	87	2097.8476247257
26	145480	88	2094.408678038
27	2042	17	4.11254450365
27	2339	18	6.0975231633921
27	2637	19	8.1241239797909
27	3017	20	10.018434339895
27	3398	21	11.94044197294
27	3781	22	13.966010854098
27	4258	23	13.99429374554
27	4736	24	13.992908905046
27	5216	25	13.889738958394
27	5812	26	13.996094578244
27	6400	27	13.943261206169
27	6988	28	13.961094655516
27	7695	29	13.829256838197
27	8402	30	13.436515939642
27	9111	31	13.16217219069
27	9957	32	12.955925744517
27	10790	33	11.26758099839
27	11623	34	8.5044873526649
27	12601	35	9.3420117710427
27	13570	36	6.9079266154914
27	14525	37	9.1319836530982
27	15628	38	10.970689421588
27	16711	39	12.982363875891
27	17779	40	13.992697958478
27	19003	41	13.936582251703
27	20225	42	13.977668084782
27	21444	43	13.986179260183
27	22853	44	13.884867181559
27	24255	45	13.927137885792
27	25661	46	13.910710662541
27	27252	47	13.909766360957
27	28826	48	13.940070941378
27	30385	49	13.877076953631
27	32143	50	13.90827997843
27	33874	51	13.954862964205
27	35598	52	13.893197995736
27	37532	53	13.963183217549
27	39447	54	13.948198468271
27	41363	55	13.944161438567
27	43498	56	13.928642164022
27	45630	57	13.919632288448
27	47773	58	13.893341971666
27	50124	59	13.941880325
27	52464	60	13.998108282317
27	54784	61	13.878701872779
27	57331	62	13.982008344322
27	59859	63	13.95228849458
27	62382	64	13.945977008874
27	65113	65	13.898765254379
27	67837	66	13.884750159571
27	70556	67	13.956998247474
27	73470	68	13.973321173731
27	76339	69	13.980317651937
27	79159	70	13.967857702158
27	82184	71	13.87017407299
27	85148	72	13.907431576322
27	88086	73	13.990516319459
27	91279	74	13.891874899538
27	94459	75	13.937335884271
27	97661	76	13.921820710613
27	101116	77	13.947281930207
27	104558	78	13.958241502543
27	108009	79	13.924777132559
27	111727	80	13.993273811741
27	115408	81	13.884921522941
27	119059	82	13.976582028877
27	123007	83	13.956678922002
27	126944	84	12.428079281867
27	131017	85	10.100515241293
27	135238	86	7.8193531052903
27	141289	87	5.864455659733
27	145480	88	4.0134029154215
28	2339	18	1.984978659742
28	2637	19	2.0266008163989
28	3017	20	1.8943103601038
28	3398	21	1.9220076330448
28	3781	22	2.0255688811579
28	4258	23	0.028282891442068
28	4736	24	-0.0013848404935555
28	5216	25	-0.10316994665191
28	5812	26	0.10635561984964
28	6400	27	-0.05283337207511
28	6988	28	0.017833449346945
28	7695	29	-0.13183781731896
28	8402	30	-0.39274089855419
28	9111	31	-0.27434374895275
28	9957	32	-0.20624644617294
28	10790	33	-1.6883447461266
28	11623	34	-2.7630936457253
28	12601	35	0.83752441837784
28	13570	36	-2.4340851555514
28	14525	37	2.2240570376068
28	15628	38	1.8387057684897
28	16711	39	2.011674454303
28	17779	40	1.0103340825873
28	19003	41	-0.056115706774872
28	20225	42	0.041085833078251
28	21444	43	0.0085111754015088
28	22853	44	-0.10131207862403
28	24255	45	0.042270704233088
28	25661	46	-0.016427223251666
28	27252	47	-0.00094430158380554
28	28826	48	0.030304580421653
28	30385	49	-0.062993987747468
28	32143	50	0.031203024799471
28	33874	51	0.046582985774148
28	35598	52	-0.061664968468248
28	37532	53	0.069985221812967
28	39447	54	-0.01498474927852
28	41363	55	-0.0040370297036123
28	43498	56	-0.015519274545367
28	45630	57	-0.0090098755736836
28	47773	58	-0.026290316781962
28	50124	59	0.048538353333717
28	52464	60	0.056227957317605
28	54784	61	-0.11940640953835
28	57331	62	0.10330647154246
28	59859	63	-0.029719849741086
28	62382	64	-0.0063114857068296
28	65113	65	-0.047211754494347
28	67837	66	-0.014015094807837
28	70556	67	0.072248087902555
28	73470	68	0.016322926257271
28	76339	69	0.0069964782055472
28	79159	70	-0.01245994977886
28	82184	71	-0.097683629167731
28	85148	72	0.03725750333164
28	88086	73	0.083084743137006
28	91279	74	-0.098641419920606
28	94459	75	0.04546098473249
28	97661	76	-0.015515173657331
28	101116	77	0.025461219593417
28	104558	78	0.010959572335704
28	108009	79	-0.033464369983411
28	111727	80	0.068496679181699
28	115408	81	-0.10835228879936
28	119059	82	0.091660505936016
28	123007	83	-0.019903106875718
28	126944	84	-1.5285996401343
28	131017	85	-2.3275640405747
28	135238	86	-2.2811621360025
28	141289	87	-1.9548974455573
28	145480	88	-1.8510527443115
29	2339	18	4.3420194955082
29	2637	19	5.5193514834883
29	3017	20	6.2598837528783
29	3398	21	7.3741311479677
29	3781	22	8.8530434321966
29	4258	23	2.13365012742
29	4736	24	2.0334505025289
29	5216	25	1.6822325806597
29	5812	26	2.3971909293526
29	6400	27	1.855503707612
29	6988	28	2.0948662776171
29	7695	29	1.5820533004124
29	8402	30	0.973
29	9111	31	0.973
29	9957	32	1.2919135943652
29	10790	33	0.973
29	11623	34	0.973
29	12601	35	3.5215990826384
29	13570	36	0.973
29	14525	37	6.5156001891765
29	15628	38	6.6226227280211
29	16711	39	8.2324265791826
29	17779	40	5.4451881818867
29	19003	41	1.8438824401449
29	20225	42	2.1749617238466
29	21444	43	2.0661193061513
29	22853	44	1.6880752085194
29	24255	45	2.1732746516206
29	25661	46	1.9746491499881
29	27252	47	2.0264593789898
29	28826	48	2.1345252785117
29	30385	49	1.8156237109116
29	32143	50	2.1340627994298
29	33874	51	2.1908906066732
29	35598	52	1.8214679161102
29	37532	53	2.2705861872936
29	39447	54	1.9831738713403
29	41363	55	2.0195663816392
29	43498	56	1.9794538530861
29	45630	57	2.0004054330977
29	47773	58	1.93992520771
29	50124	59	2.1959885866008
29	52464	60	2.2283411417848
29	54784	61	1.6270777435242
29	57331	62	2.3851117990842
29	59859	63	1.9340301948742
29	62382	64	2.0121056433488
29	65113	65	1.8703641945081
29	67837	66	1.9801814994952
29	70556	67	2.277460917713
29	73470	68	2.0910828619716
29	76339	69	2.0604034814904
29	79159	70	1.9936118250746
29	82184	71	1.6990698160563
29	85148	72	2.1542627543164
29	88086	73	2.3180133884777
29	91279	74	1.6975579736318
29	94459	75	2.185134912585
29	97661	76	1.9787974726638
29	101116	77	2.1190343839391
29	104558	78	2.071439007203
29	108009	79	1.9188526777571
29	111727	80	2.2691547542171
29	115408	81	1.6645209900012
29	119059	82	2.3451932944867
29	123007	83	1.9674666771295
29	126944	84	0.973
29	131017	85	0.973
29	135238	86	0.973
29	141289	87	0.973
29	145480	88	0.973
30	2637	19	2414.8588002162
30	3017	20	2414.8588002162
30	3398	21	2411.8128147094
30	3781	22	2407.1980394585
30	4258	23	2402.4260893827
30	4736	24	2396.4703598532
30	5216	25	2389.2222769874
30	5812	26	2380.6475507468
30	6400	27	2371.4675885644
30	6988	28	2362.2853867376
30	7695	29	2353.1014532228
30	8402	30	2343.9167522368
30	9111	31	2335.7592630242
30	9957	32	2334.0763715116
30	10790	33	2342.9457734847
30	11623	34	2352.7630564623
30	12601	35	2362.8963906621
30	13570	36	2375.8179889829
30	14525	37	2388.7877361589
30	15628	38	2401.7727345998
30	16711	39	2414.1003036475
30	17779	40	2422.4116629731
30	19003	41	2429.7483392076
30	20225	42	2431.8187159494
30	21444	43	2433.5863239734
30	22853	44	2435.6333255254
30	24255	45	2437.7251014278
30	25661	46	2438.8311097387
30	27252	47	2439.7530554269
30	28826	48	2440.7623816305
30	30385	49	2441.7733011593
30	32143	50	2442.7835379966
30	33874	51	2443.7947770543
30	35598	52	2444.8051972518
30	37532	53	2445.8169310748
30	39447	54	2446.8271123795
30	41363	55	2447.8372403309
30	43498	56	2448.8468136862
30	45630	57	2449.85968903
30	47773	58	2450.4280289282
30	50124	59	2449.3144754737
30	52464	60	2448.1991392631
30	54784	61	2447.0859020924
30	57331	62	2445.9733171484
30	59859	63	2444.8601511701
30	62382	64	2443.7485429292
30	65113	65	2442.6356549449
30	67837	66	2441.5218806025
30	70556	67	2440.4231678097
30	73470	68	2439.4804845047
30	76339	69	2438.6159434677
30	79159	70	2437.2669850449
30	82184	71	2430.7552516428
30	85148	72	2419.3404297139
30	88086	73	2405.9348433106
30	91279	74	2392.0194124001
30	94459	75	2378.1011852593
30	97661	76	2364.1953779339
30	101116	77	2350.2886800821
30	104558	78	2336.3561129614
30	108009	79	2322.4562056735
30	111727	80	2308.5250294865
30	115408	81	2294.5961415229
30	119059	82	2280.6805873379
30	123007	83	2266.7584311436
30	126944	84	2252.8414253348
30	131017	85	2238.9878991076
30	135238	86	2225.1997955049
30	141289	87	2211.6202447684
30	145480	88	2198.980008138
31	2637	19	1578.4572625495
31	3017	20	1578.4572625495
31	3398	21	1579.5757325301
31	3781	22	1581.5168734081
31	4258	23	1586.3502014261
31	4736	24	1592.3825349454
31	5216	25	1599.723844354
31	5812	26	1608.4088607347
31	6400	27	1617.7068977449
31	6988	28	1627.0072032055
31	7695	29	1636.3092626277
31	8402	30	1645.6120993933
31	9111	31	1655.8232780742
31	9957	32	1668.6061278731
31	10790	33	1677.8234253228
31	11623	34	1686.4625172503
31	12601	35	1694.2570089856
31	13570	36	1696.1883798428
31	14525	37	1697.7153751645
31	15628	38	1698.9431934794
31	16711	39	1700.1088474551
31	17779	40	1700.8851519767
31	19003	41	1702.3337102309
31	20225	42	1711.7907452099
31	21444	43	1723.4225047911
31	22853	44	1736.8928158525
31	24255	45	1750.6577649042
31	25661	46	1764.5359474756
31	27252	47	1778.4480041219
31	28826	48	1792.3282297663
31	30385	49	1806.2303667758
31	32143	50	1820.1231154287
31	33874	51	1834.0296465904
31	35598	52	1847.9249168085
31	37532	53	1861.8382519679
31	39447	54	1875.7302369392
[...]
100	54784	61	2414.8844513154
100	57331	62	2414.8844513154
100	59859	63	2411.952405891
100	62382	64	2407.1483753425
100	65113	65	2402.0327751596
100	67837	66	2395.5605150873
100	70556	67	2387.7034512246
100	73470	68	2378.4408955037
100	76339	69	2368.6464148381
100	79159	70	2358.85036586
100	82184	71	2349.0623008312
100	85148	72	2339.7408343487
100	88086	73	2334.2278371524
100	91279	74	2339.2625557089
100	94459	75	2349.4910571177
100	97661	76	2358.9042269117
100	101116	77	2370.0415060408
100	104558	78	2380.5743651568
100	108009	79	2390.6718106639
100	111727	80	2399.8656969293
100	115408	81	2408.6379168016
100	119059	82	2417.2194066041
100	123007	83	2424.4975534223
100	126944	84	2430.7423935193
100	131017	85	2432.266259757
100	135238	86	2434.0765236972
100	141289	87	2436.1311429263
100	145480	88	2438.0897234209
101	54784	61	1578.4478435991
101	57331	62	1578.4478435991
101	59859	63	1579.5244753771
101	62382	64	1581.5671763159
101	65113	65	1586.7485745484
101	67837	66	1593.304082348
101	70556	67	1601.2622056101
101	73470	68	1610.6438984955
101	76339	69	1620.5643580696
101	79159	70	1630.4864061279
101	82184	71	1640.400367545
101	85148	72	1650.7262470797
101	88086	73	1663.0578762544
101	91279	74	1674.8490054691
101	94459	75	1683.5117462864
101	97661	76	1692.000778581
101	101116	77	1695.3249780769
101	104558	78	1696.7935269903
101	108009	79	1697.89352699
101	111727	80	1698.7628703322
101	115408	81	1699.5923423013
101	119059	82	1700.4037794685
101	123007	83	1701.0059385058
101	126944	84	1704.7079963367
101	131017	85	1714.7358110286
101	135238	86	1726.6482682284
101	141289	87	1740.1687074769
101	145480	88	1753.9627777906
102	57331	62	4.018615917157
102	59859	63	6.1678624366304
102	62382	64	8.1947875515009
102	65113	65	10.095725917275
102	67837	66	12.087148355938
102	70556	67	13.916756611222
102	73470	68	13.873082711415
102	76339	69	13.970749160051
102	79159	70	13.922085633471
102	82184	71	13.919626296114
102	85148	72	13.89674285165
102	88086	73	13.8748673278
102	91279	74	13.050387363084
102	94459	75	12.313109540106
102	97661	76	11.372147735548
102	101116	77	10.365966287683
102	104558	78	9.4953062928876
102	108009	79	9.4861117981816
102	111727	80	7.9931687686442
102	115408	81	9.1878188845829
102	119059	82	6.9895311099889
102	123007	83	9.094548749743
102	126944	84	11.030252739443
102	131017	85	12.881577137495
102	135238	86	13.968358664801
102	141289	87	13.884333073294
102	145480	88	13.940568594248
103	59859	63	2.1492465194734
103	62382	64	2.0269251148705
103	65113	65	1.9009383657738
103	67837	66	1.9914224386634
103	70556	67	1.8296082552838
103	73470	68	-0.043673899807034
103	76339	69	0.097666448636446
103	79159	70	-0.048663526580203
103	82184	71	-0.0024593373574326
103	85148	72	-0.022883444463368
103	88086	73	-0.021875523850614
103	91279	74	-0.82447996471606
103	94459	75	-0.73727782297787
103	97661	76	-0.94096180455795
103	101116	77	-1.0061814478651
103	104558	78	-0.87065999479512
103	108009	79	-0.0091944947059659
103	111727	80	-1.4929430295375
103	115408	81	1.1946501159387
103	119059	82	-2.198287774594
103	123007	83	2.1050176397541
103	126944	84	1.9357039897004
103	131017	85	1.8513243980519
103	135238	86	1.086781527306
103	141289	87	-0.084025591507089
103	145480	88	0.056235520953779
104	59859	63	4.6239714702746
104	62382	64	5.559217427776
104	65113	65	6.3171910975532
104	67837	66	7.6572369962964
104	70556	67	8.1667304192483
104	73470	68	1.8798735915629
104	76339	69	2.3646891363214
104	79159	70	1.867603388115
104	82184	71	2.0223794668753
104	85148	72	1.9516596977621
104	88086	73	1.9529264458677
104	91279	74	0.973
104	94459	75	0.973
104	97661	76	0.973
104	101116	77	0.973
104	104558	78	0.973
104	108009	79	1.6254464959265
104	111727	80	0.973
104	115408	81	4.2701405197745
104	119059	82	0.973
104	123007	83	6.2319587631773
104	126944	84	6.9117372759842
104	131017	85	7.6762302958424
104	135238	86	5.6941199849302
104	141289	87	1.7458766823368
104	145480	88	2.2216993070711
105	62382	64	2414.8420826617
105	65113	65	2414.8420826617
105	67837	66	2411.6921621242
105	70556	67	2406.8077182934
105	73470	68	2401.6811510426
105	76339	69	2395.3062389906
105	79159	70	2387.5620720242
105	82184	71	2378.9876058855
105	85148	72	2370.4015149698
105	88086	73	2361.816110178
105	91279	74	2353.2254117181
105	94459	75	2344.6311708436
105	97661	76	2336.9076843112
105	101116	77	2333.8926936223
105	104558	78	2340.2200407498
105	108009	79	2349.522631368
105	111727	80	2358.6080084353
105	115408	81	2369.8655446537
105	119059	82	2381.9576193939
105	123007	83	2394.1195587356
105	126944	84	2406.3064077778
105	131017	85	2417.349401294
105	135238	86	2424.5785808832
105	141289	87	2430.755747596
105	145480	88	2432.3118152091
106	62382	64	1578.4634011481
106	65113	65	1578.4634011481
106	67837	66	1579.6200355301
106	70556	67	1581.9122149758
106	73470	68	1587.1047213376
106	76339	69	1593.5616290038
106	79159	70	1601.4054032629
106	82184	71	1610.0901561966
106	85148	72	1618.7866834281
106	88086	73	1627.4825157104
106	91279	74	1636.183709749
106	94459	75	1644.8884917665
106	97661	76	1654.3531200849
106	101116	77	1665.9501736853
106	104558	78	1675.6222322211
106	108009	79	1683.5402207365
106	111727	80	1691.7336413395
106	115408	81	1695.2986774063
106	119059	82	1696.9581651138
106	123007	83	1698.2195345946
106	126944	84	1699.3718825541
106	131017	85	1700.4160713349
106	135238	86	1701.0106305191
106	141289	87	1704.7958729528
106	145480	88	1715.0355890673
107	65113	65	4.2842987557744
107	67837	66	6.3335589328256
107	70556	67	8.0892261283855
107	73470	68	9.909994260104
107	76339	69	11.839966300701
107	79159	70	12.266656966092
107	82184	71	12.295276953945
107	85148	72	12.238093200747
107	88086	73	12.208948951288
107	91279	74	12.283356812437
107	94459	75	12.271017379569
107	97661	76	12.177356552488
107	101116	77	12.250097024875
107	104558	78	12.189899781536
107	108009	79	12.216411735568
107	111727	80	12.24442244583
107	115408	81	12.176833894662
107	119059	82	12.227113323346
107	123007	83	12.233818625032
107	126944	84	9.2681343349676
107	131017	85	6.951859368236
107	135238	86	9.2314506183111
107	141289	87	11.238339653969
107	145480	88	13.148248238718
108	67837	66	2.0492601770512
108	70556	67	1.7556671955599
108	73470	68	1.8207681317185
108	76339	69	1.9299720405973
108	79159	70	0.42669066539084
108	82184	71	0.028619987852872
108	85148	72	-0.057183753198478
108	88086	73	-0.029144249458332
108	91279	74	0.074407861148938
108	94459	75	-0.012339432868174
108	97661	76	-0.093660827081186
108	101116	77	0.072740472387522
108	104558	78	-0.060197243338916
108	108009	79	0.026511954031884
108	111727	80	0.028010710261297
108	115408	81	-0.067588551167864
108	119059	82	0.050279428684153
108	123007	83	0.0067053016857237
108	126944	84	-2.965684290064
108	131017	85	-2.3162749667316
108	135238	86	2.279591250075
108	141289	87	2.0068890356575
108	145480	88	1.9099085847498
109	67837	66	4.5669665819023
109	70556	67	4.9718018898546
109	73470	68	6.0265212158169
109	76339	69	7.3415326447534
109	79159	70	3.1336645143854
109	82184	71	1.9596366708659
109	85148	72	1.7010311945519
109	88086	73	1.781322330603
109	91279	74	2.0940258423692
109	94459	75	1.8361547731665
109	97661	76	1.5893789470923
109	101116	77	2.0855153956409
109	104558	78	1.6885250851001
109	108009	79	1.9457988937384
109	111727	80	1.9529129732982
109	115408	81	1.6658561967065
109	119059	82	2.0168629541678
109	123007	83	1.8890738486753
109	126944	84	0.973
109	131017	85	0.973
109	135238	86	6.6995878675228
109	141289	87	7.218798840255
109	145480	88	8.0062312204286
110	70556	67	2414.8461773879
110	73470	68	2414.8461773879
110	76339	69	2411.8156173957
110	79159	70	2407.0654892415
110	82184	71	2401.9492347768
110	85148	72	2395.3429720888
110	88086	73	2387.2616390446
110	91279	74	2377.8896717046
110	94459	75	2368.132777152
110	97661	76	2358.352849392
110	101116	77	2348.5864132382
110	104558	78	2339.3564212093
110	108009	79	2334.1342350811
110	111727	80	2339.6713423185
110	115408	81	2350.2392751323
110	119059	82	2360.353480833
110	123007	83	2373.2728725324
110	126944	84	2386.2492387758
110	131017	85	2398.4646979315
110	135238	86	2407.8223555434
110	141289	87	2416.8864083674
110	145480	88	2424.347609523
111	70556	67	1578.4618975855
111	73470	68	1578.4618975855
111	76339	69	1579.5747033991
111	79159	70	1581.6511285175
111	82184	71	1586.8331894474
111	85148	72	1593.5244234363
111	88086	73	1601.709700482
111	91279	74	1611.2022122648
111	94459	75	1621.0846022842
111	97661	76	1630.9903217694
111	101116	77	1640.8823761158
111	104558	78	1651.2183557283
111	108009	79	1663.6215842515
111	111727	80	1675.1791252401
111	115408	81	1684.1865080334
111	119059	82	1693.3077520663
111	123007	83	1695.8079653131
111	126944	84	1697.4689635951
111	131017	85	1698.6303965217
111	135238	86	1699.5152255381
111	141289	87	1700.3722922616
111	145480	88	1700.9972557854
112	73470	68	4.1832233416825
112	76339	69	6.094705743054
112	79159	70	8.2377684972995
112	82184	71	10.383634851228
112	85148	72	12.377837524719
112	88086	73	13.95514258502
112	91279	74	13.851584344874
112	94459	75	13.90825316288
112	97661	76	13.850232986188
112	101116	77	13.868391821445
112	104558	78	13.842565385092
112	108009	79	13.880377471799
112	111727	80	13.824036118681
112	115408	81	13.44125427326
112	119059	82	13.195892382637
112	123007	83	12.988348819491
112	126944	84	11.051899495583
112	131017	85	8.5596046509373
112	135238	86	9.4337142466086
112	141289	87	7.176029561783
112	145480	88	9.260696197843
113	76339	69	1.9114824013715
113	79159	70	2.1430627542455
113	82184	71	2.1458663539286
113	85148	72	1.9942026734911
113	88086	73	1.5773050603013
113	91279	74	-0.10355824014638
113	94459	75	0.056668818006292
113	97661	76	-0.058020176691935
113	101116	77	0.018158835256473
113	104558	78	-0.025826436353382
113	108009	79	0.03781208670698
113	111727	80	-0.056341353117922
113	115408	81	-0.38278184542026
113	119059	82	-0.24536189062374
113	123007	83	-0.20754356314608
113	126944	84	-1.9364493239075
113	131017	85	-2.4922948446457
113	135238	86	0.87410959567126
113	141289	87	-2.2576846848255
113	145480	88	2.08466663606
114	76339	69	4.2325536946742
114	79159	70	5.8136589782112
114	82184	71	7.0842665770013
114	85148	72	7.8311198804753
114	88086	73	7.3390305246716
114	91279	74	1.6780100664083
114	94459	75	2.2194183790726
114	97661	76	1.8299085364327
114	101116	77	2.0861090205836
114	104558	78	1.9366386539141
114	108009	79	2.1531225624654
114	111727	80	1.833214196001
114	115408	81	0.973
114	119059	82	1.1785376743835
114	123007	83	1.289317924974
114	126944	84	0.973
114	131017	85	0.973
114	135238	86	3.6299494821753
114	141289	87	0.973
114	145480	88	6.2827203829465
115	79159	70	2414.8737180224
115	82184	71	2414.8737180224
115	85148	72	2411.8680781076
115	88086	73	2407.1568522488
115	91279	74	2402.2695560248
115	94459	75	2396.026197728
115	97661	76	2388.8156860289
115	101116	77	2381.5505374246
115	104558	78	2374.29244742
115	108009	79	2367.0056487003
115	111727	80	2359.7510255593
115	115408	81	2352.5099029642
115	119059	82	2345.2446918846
115	123007	83	2338.5956882177
115	126944	84	2334.510232391
115	131017	85	2335.3077529006
115	135238	86	2343.1748500988
115	141289	87	2350.9512399695
115	145480	88	2358.6249918449
116	79159	70	1578.4517848091
116	82184	71	1578.4517848091
116	85148	72	1579.555440099
116	88086	73	1581.5585903777
116	91279	74	1586.5087481523
116	94459	75	1592.8324099882
116	97661	76	1600.1356649809
116	101116	77	1607.4942596303
116	104558	78	1614.8457048917
116	108009	79	1622.2262281263
116	111727	80	1629.5741619319
116	115408	81	1636.9084215444
116	119059	82	1644.2670794735
116	123007	83	1652.19221236
116	126944	84	1661.3571825419
116	131017	85	1671.3368108161
116	135238	86	1678.008418465
116	141289	87	1684.8285757564
116	145480	88	1691.748957403
117	82184	71	4.0859593419879
117	85148	72	6.0045190997058
117	88086	73	7.8119547564685
117	91279	74	9.7132447450151
117	94459	75	10.305879691574
117	97661	76	10.360164749592
117	101116	77	10.362935353057
117	104558	78	10.312807143824
117	108009	79	10.375441872943
117	111727	80	10.299517820359
117	115408	81	10.312693880121
117	119059	82	10.402105987973
117	123007	83	10.374811264868
117	126944	84	10.33296438281
117	131017	85	10.292473317215
117	135238	86	10.402252755186
117	141289	87	10.334053397409
117	145480	88	10.286512546665
118	85148	72	1.9185597577179
118	88086	73	1.8074356567627
118	91279	74	1.9012899885466
118	94459	75	0.59263494655885
118	97661	76	0.054285058018287
118	101116	77	0.0027706034644499
118	104558	78	-0.050128209232353
118	108009	79	0.062634729119019
118	111727	80	-0.075924052584451
118	115408	81	0.013176059762481
118	119059	82	0.089412107851823
118	123007	83	-0.027294723105152
118	126944	84	-0.041846882058307
118	131017	85	-0.040491065594834
118	135238	86	0.1097794379713
118	141289	87	-0.068199357776901
118	145480	88	-0.047540850744118
119	85148	72	4.1959838790125
119	88086	73	4.9337141016577
119	91279	74	6.1139389675705
119	94459	75	3.1802109976683
119	97661	76	1.8480374430506
119	101116	77	1.7196341081864
119	104558	78	1.5842237541346
119	108009	79	1.8703075779173
119	111727	80	1.5193220070009
119	115408	81	1.7415501691917
119	119059	82	1.9399222969325
119	123007	83	1.645395562495
119	126944	84	1.6061704388764
119	131017	85	1.6067951515463
119	135238	86	1.9909966746953
119	141289	87	1.5406131955875
119	145480	88	1.588914106939
120	88086	73	2414.8769514603
120	91279	74	2414.8769514603
120	94459	75	2411.9119199329
120	97661	76	2407.298265514
120	101116	77	2402.4443862444
120	104558	78	2396.2601480235
120	108009	79	2388.6069567787
120	111727	80	2379.616833211
120	115408	81	2370.4989479294
120	119059	82	2361.4831209757
120	123007	83	2352.8745644127
120	126944	84	2344.584524505
120	131017	85	2337.3469447539
120	135238	86	2334.0507973665
120	141289	87	2337.7727678836
120	145480	88	2346.1215699003
121	88086	73	1578.4505975069
121	91279	74	1578.4505975069
121	94459	75	1579.5393416099
121	97661	76	1581.4153582221
121	101116	77	1586.3316692254
121	104558	78	1592.5954505689
121	108009	79	1600.3470789557
121	111727	80	1609.4528356018
121	115408	81	1618.6879972629
121	119059	82	1627.8197878981
121	123007	83	1636.5390697354
121	126944	84	1644.9357380811
121	131017	85	1653.7907983502
121	135238	86	1664.1240785467
121	141289	87	1673.6459122086
121	145480	88	1680.4730583178
122	91279	74	4.0735588402093
122	94459	75	5.8290612863471
122	97661	76	7.862662603839
122	101116	77	9.6879727271526
122	104558	78	11.944467225839
122	108009	79	12.953456134841
122	111727	80	12.998777343629
122	115408	81	12.605227840698
122	119059	82	12.014084930552
122	123007	83	11.584700541917
122	126944	84	11.358179795498
122	131017	85	11.081834647454
122	135238	86	10.873275918259
122	141289	87	10.736084915775
122	145480	88	10.63591405961
123	94459	75	1.7555024461378
123	97661	76	2.0336013174918
123	101116	77	1.8253101233137
123	104558	78	2.2564944986859
123	108009	79	1.0089889090025
123	111727	80	0.045321208788081
123	115408	81	-0.39354950293097
123	119059	82	-0.59114291014626
123	123007	83	-0.42938438863522
123	126944	84	-0.22652074641895
123	131017	85	-0.27634514804333
123	135238	86	-0.20855872919588
123	141289	87	-0.13719100248404
123	145480	88	-0.10017085616436
124	94459	75	3.8756268936732
124	97661	76	5.3876730590065
124	101116	77	5.9230829630863
124	104558	78	8.3392083846763
124	108009	79	5.0855033372062
124	111727	80	2.0819381521331
124	115408	81	0.973
124	119059	82	0.973
124	123007	83	0.973
124	126944	84	1.1732211916124
124	131017	85	0.973
124	135238	86	1.2067626787784
124	141289	87	1.3872581391992
124	145480	88	1.4774598654094
125	97661	76	2414.8732395561
125	101116	77	2414.8732395561
125	104558	78	2411.9082769358
125	108009	79	2407.1655617389
125	111727	80	2402.128447905
125	115408	81	2395.6944575682
125	119059	82	2387.9337748789
125	123007	83	2378.7673655167
125	126944	84	2368.9823548129
125	131017	85	2359.2122518424
125	135238	86	2349.4316794267
125	141289	87	2340.0865105919
125	145480	88	2334.4174806303
126	97661	76	1578.4519604994
126	101116	77	1578.4519604994
126	104558	78	1579.5406792993
126	108009	79	1581.5497688642
126	111727	80	1586.6516712382
126	115408	81	1593.1684170682
126	119059	82	1601.0289194789
126	123007	83	1610.3132293485
126	126944	84	1620.224097156
126	131017	85	1630.1198654827
126	135238	86	1640.0262379153
126	141289	87	1650.2837276859
126	145480	88	1661.9157696376
127	101116	77	4.0635240824116
127	104558	78	6.1144633837571
127	108009	79	8.1038544815257
127	111727	80	10.046968652414
127	115408	81	11.926067483762
127	119059	82	13.892129573808
127	123007	83	13.936045407304
127	126944	84	13.893183273086
127	131017	85	13.889124961388
127	135238	86	13.833042053432
127	141289	87	13.039664782253
127	145480	88	12.451307082409
128	104558	78	2.0509393013455
128	108009	79	1.9893910977687
128	111727	80	1.9431141708884
128	115408	81	1.8790988313477
128	119059	82	1.9660620900462
128	123007	83	0.043915833495557
128	126944	84	-0.042862134217286
128	131017	85	-0.0040583116980262
128	135238	86	-0.056082907956462
128	141289	87	-0.79337727117912
128	145480	88	-0.5883576998438
129	104558	78	4.4483142439603
129	108009	79	5.4354323508198
129	111727	80	6.3932525708783
129	115408	81	7.2428843983977
129	119059	82	8.6102118406059
129	123007	83	2.1797995320176
129	126944	84	1.884423361701
129	131017	85	2.0139397067959
129	135238	86	1.8348652346028
129	141289	87	0.973
129	145480	88	0.973
130	108009	79	2414.8461739381
130	111727	80	2414.8461739381
130	115408	81	2411.9468780267
130	119059	82	2407.2557718946
130	123007	83	2402.3132644872
130	126944	84	2396.0984851476
130	131017	85	2388.637281624
130	135238	86	2379.8467096724
130	141289	87	2370.3468173424
130	145480	88	2360.8653239175
131	108009	79	1578.4618988531
131	111727	80	1578.4618988531
131	115408	81	1579.5265051797
131	119059	82	1581.4583984045
131	123007	83	1586.4644775018
131	126944	84	1592.7591927908
131	131017	85	1600.3163640648
131	135238	86	1609.2200024156
131	141289	87	1618.8420845894
131	145480	88	1628.4455312071
132	111727	80	4.0267229073465
132	115408	81	5.9477333564631
132	119059	82	7.8212407105433
132	123007	83	9.6026732088782
132	126944	84	11.466286668062
132	131017	85	13.286947636499
132	135238	86	13.562368140693
132	141289	87	13.529235902293
132	145480	88	13.455384539605
133	115408	81	1.9210104491166
133	119059	82	1.8735073540802
133	123007	83	1.7814324983349
133	126944	84	1.8636134591838
133	131017	85	1.8206609684369
133	135238	86	0.27542050419428
133	141289	87	-0.033132238399704
133	145480	88	-0.073851362688
134	115408	81	4.1699391246736
134	119059	82	5.0629039791787
134	123007	83	5.7777020757503
134	126944	84	6.9522613836103
134	131017	85	7.7976945860273
134	135238	86	2.8949203803963
134	141289	87	1.8833876959034
134	145480	88	1.7446470970948
135	119059	82	2414.8840517174
135	123007	83	2414.8840517174
135	126944	84	2412.0108083608
135	131017	85	2407.4277382374
135	135238	86	2402.5740833235
135	141289	87	2396.4932427702
135	145480	88	2389.0606667105
136	119059	82	1578.4479903299
136	123007	83	1578.4479903299
136	126944	84	1579.5030302955
136	131017	85	1581.2842201898
136	135238	86	1586.2003039522
136	141289	87	1592.3593577035
136	145480	88	1599.8875332996
137	123007	83	3.8169569386458
137	126944	84	5.8201201644269
137	131017	85	7.6568561983863
137	135238	86	9.4728654203107
137	141289	87	11.482040745815
137	145480	88	13.28880034773
138	126944	84	2.0031632257812
138	131017	85	1.8367360339593
138	135238	86	1.8160092219245
138	141289	87	2.009175325504
138	145480	88	1.8067596019153
139	126944	84	4.2187098686395
139	131017	85	4.910169108938
139	135238	86	5.791375069684
139	141289	87	7.3634665133753
139	145480	88	7.7541670228011
140	131017	85	2414.8736667775
140	135238	86	2414.8736667775
140	141289	87	2411.9596294151
140	145480	88	2407.2080569622
141	131017	85	1578.4518036256
141	135238	86	1578.4518036256
141	141289	87	1579.5218229368
141	145480	88	1581.5067270575
142	135238	86	4.0343364698305
142	141289	87	6.1070091192196
142	145480	88	7.9887447326775
143	141289	87	2.0726726493891
143	145480	88	1.8817356134579
144	141289	87	4.476179949182
144	145480	88	5.1653576997334
145	145480	88	2414.8836325099
146	145480	88	1578.4481442608

