file 3061239 1587035931                                         
version 2
run Default-0-20200416-12:16:23-21480
attr configname Default
attr datetime 20200416-12:16:23
attr experiment Default
attr inifile omnetpp.ini
attr iterationvars ""
attr iterationvarsf ""
attr measurement ""
attr network RSUExampleScenario
attr processid 21480
attr repetition 0
attr replication #0
attr resultdir results
attr runnumber 0
attr seedset 0
param *.playgroundSizeX 2500m
param *.playgroundSizeY 2500m
param *.playgroundSizeZ 50m
param *.annotations.draw true
param *.obstacles.obstacles "xmldoc(\"config.xml\", \"//AnalogueModel[@type='SimpleObstacleShadowing']/obstacles\")"
param *.manager.updateInterval 1s
param *.manager.host "\"localhost\""
param *.manager.port 9999
param *.manager.autoShutdown true
param *.manager.launchConfig "xmldoc(\"erlangen.launchd.xml\")"
param *.rsu[0].mobility.x 2000
param *.rsu[0].mobility.y 2000
param *.rsu[0].mobility.z 3
param *.rsu[*].applType "\"TraCIDemoRSU11p\""
param *.rsu[*].appl.headerLength "80 bit"
param *.rsu[*].appl.sendBeacons true
param *.rsu[*].appl.sendWSA true
param *.rsu[*].appl.dataOnSch false
param *.rsu[*].appl.beaconInterval 1s
param *.rsu[*].appl.beaconUserPriority 7
param *.rsu[*].appl.dataUserPriority 5
param *.rsu[*].nic.phy80211p.antennaOffsetZ "0 m"
param *.connectionManager.sendDirect true
param *.connectionManager.maxInterfDist 2600m
param *.connectionManager.drawMaxIntfDist false
param *.**.nic.mac1609_4.useServiceChannel false
param *.**.nic.mac1609_4.txPower 20mW
param *.**.nic.mac1609_4.bitrate 6Mbps
param *.**.nic.phy80211p.minPowerLevel -110dBm
param *.**.nic.phy80211p.useNoiseFloor true
param *.**.nic.phy80211p.noiseFloor -98dBm
param *.**.nic.phy80211p.decider "xmldoc(\"config.xml\")"
param *.**.nic.phy80211p.analogueModels "xmldoc(\"config.xml\")"
param *.**.nic.phy80211p.usePropagationDelay true
param *.**.nic.phy80211p.antenna "xmldoc(\"antenna.xml\", \"/root/Antenna[@id='monopole']\")"
param *.node[*].nic.phy80211p.antennaOffsetY "0 m"
param *.node[*].nic.phy80211p.antennaOffsetZ "1.895 m"
param *.node[*].dsp.camq.sendInterval 10s
param *.node[*].dsp.denq.sendInterval 2s
param *.node[*].applType "\"TraCIDemo11p\""
param *.node[*].appl.headerLength "80 bit"
param *.node[*].appl.sendBeacons true
param *.node[*].appl.sendWSA true
param *.node[*].appl.dataOnSch false
param *.node[*].appl.beaconInterval 1s
param *.node[*].veinsmobility.x 0
param *.node[*].veinsmobility.y 0
param *.node[*].veinsmobility.z 0
param *.node[*].veinsmobility.setHostSpeed false
param *.node[*0].veinsmobility.accidentCount 1
param *.node[*0].veinsmobility.accidentStart 73s
param *.node[*0].veinsmobility.accidentDuration 50s

vector 0 RSUExampleScenario.node[0].veinsmobility posx ETV
vector 1 RSUExampleScenario.node[0].veinsmobility posy ETV
vector 2 RSUExampleScenario.node[0].veinsmobility speed ETV
vector 3 RSUExampleScenario.node[0].veinsmobility acceleration ETV
vector 4 RSUExampleScenario.node[0].veinsmobility co2emission ETV
vector 5 RSUExampleScenario.node[1].veinsmobility posx ETV
vector 6 RSUExampleScenario.node[1].veinsmobility posy ETV
vector 7 RSUExampleScenario.node[1].veinsmobility speed ETV
vector 8 RSUExampleScenario.node[1].veinsmobility acceleration ETV
vector 9 RSUExampleScenario.node[1].veinsmobility co2emission ETV
vector 10 RSUExampleScenario.node[2].veinsmobility posx ETV
vector 11 RSUExampleScenario.node[2].veinsmobility posy ETV
vector 12 RSUExampleScenario.node[2].veinsmobility speed ETV
vector 13 RSUExampleScenario.node[2].veinsmobility acceleration ETV
vector 14 RSUExampleScenario.node[2].veinsmobility co2emission ETV
vector 15 RSUExampleScenario.node[3].veinsmobility posx ETV
vector 16 RSUExampleScenario.node[3].veinsmobility posy ETV
vector 17 RSUExampleScenario.node[3].veinsmobility speed ETV
vector 18 RSUExampleScenario.node[3].veinsmobility acceleration ETV
vector 19 RSUExampleScenario.node[3].veinsmobility co2emission ETV
vector 20 RSUExampleScenario.node[4].veinsmobility posx ETV
vector 21 RSUExampleScenario.node[4].veinsmobility posy ETV
vector 22 RSUExampleScenario.node[4].veinsmobility speed ETV
vector 23 RSUExampleScenario.node[4].veinsmobility acceleration ETV
vector 24 RSUExampleScenario.node[4].veinsmobility co2emission ETV
vector 25 RSUExampleScenario.node[5].veinsmobility posx ETV
vector 26 RSUExampleScenario.node[5].veinsmobility posy ETV
vector 27 RSUExampleScenario.node[5].veinsmobility speed ETV
vector 28 RSUExampleScenario.node[5].veinsmobility acceleration ETV
vector 29 RSUExampleScenario.node[5].veinsmobility co2emission ETV
vector 30 RSUExampleScenario.node[6].veinsmobility posx ETV
vector 31 RSUExampleScenario.node[6].veinsmobility posy ETV
vector 32 RSUExampleScenario.node[6].veinsmobility speed ETV
vector 33 RSUExampleScenario.node[6].veinsmobility acceleration ETV
vector 34 RSUExampleScenario.node[6].veinsmobility co2emission ETV
vector 35 RSUExampleScenario.node[7].veinsmobility posx ETV
vector 36 RSUExampleScenario.node[7].veinsmobility posy ETV
vector 37 RSUExampleScenario.node[7].veinsmobility speed ETV
vector 38 RSUExampleScenario.node[7].veinsmobility acceleration ETV
vector 39 RSUExampleScenario.node[7].veinsmobility co2emission ETV
vector 40 RSUExampleScenario.node[8].veinsmobility posx ETV
vector 41 RSUExampleScenario.node[8].veinsmobility posy ETV
vector 42 RSUExampleScenario.node[8].veinsmobility speed ETV
vector 43 RSUExampleScenario.node[8].veinsmobility acceleration ETV
vector 44 RSUExampleScenario.node[8].veinsmobility co2emission ETV
vector 45 RSUExampleScenario.node[9].veinsmobility posx ETV
vector 46 RSUExampleScenario.node[9].veinsmobility posy ETV
vector 47 RSUExampleScenario.node[9].veinsmobility speed ETV
vector 48 RSUExampleScenario.node[9].veinsmobility acceleration ETV
vector 49 RSUExampleScenario.node[9].veinsmobility co2emission ETV
vector 50 RSUExampleScenario.node[10].veinsmobility posx ETV
vector 51 RSUExampleScenario.node[10].veinsmobility posy ETV
vector 52 RSUExampleScenario.node[10].veinsmobility speed ETV
vector 53 RSUExampleScenario.node[10].veinsmobility acceleration ETV
vector 54 RSUExampleScenario.node[10].veinsmobility co2emission ETV
vector 55 RSUExampleScenario.node[11].veinsmobility posx ETV
vector 56 RSUExampleScenario.node[11].veinsmobility posy ETV
vector 57 RSUExampleScenario.node[11].veinsmobility speed ETV
vector 58 RSUExampleScenario.node[11].veinsmobility acceleration ETV
vector 59 RSUExampleScenario.node[11].veinsmobility co2emission ETV
vector 60 RSUExampleScenario.node[12].veinsmobility posx ETV
vector 61 RSUExampleScenario.node[12].veinsmobility posy ETV
vector 62 RSUExampleScenario.node[12].veinsmobility speed ETV
vector 63 RSUExampleScenario.node[12].veinsmobility acceleration ETV
vector 64 RSUExampleScenario.node[12].veinsmobility co2emission ETV
vector 65 RSUExampleScenario.node[13].veinsmobility posx ETV
vector 66 RSUExampleScenario.node[13].veinsmobility posy ETV
vector 67 RSUExampleScenario.node[13].veinsmobility speed ETV
vector 68 RSUExampleScenario.node[13].veinsmobility acceleration ETV
vector 69 RSUExampleScenario.node[13].veinsmobility co2emission ETV
vector 70 RSUExampleScenario.node[14].veinsmobility posx ETV
vector 71 RSUExampleScenario.node[14].veinsmobility posy ETV
vector 72 RSUExampleScenario.node[14].veinsmobility speed ETV
vector 73 RSUExampleScenario.node[14].veinsmobility acceleration ETV
vector 74 RSUExampleScenario.node[14].veinsmobility co2emission ETV
vector 75 RSUExampleScenario.node[15].veinsmobility posx ETV
vector 76 RSUExampleScenario.node[15].veinsmobility posy ETV
vector 77 RSUExampleScenario.node[15].veinsmobility speed ETV
vector 78 RSUExampleScenario.node[15].veinsmobility acceleration ETV
vector 79 RSUExampleScenario.node[15].veinsmobility co2emission ETV
vector 80 RSUExampleScenario.node[16].veinsmobility posx ETV
vector 81 RSUExampleScenario.node[16].veinsmobility posy ETV
vector 82 RSUExampleScenario.node[16].veinsmobility speed ETV
vector 83 RSUExampleScenario.node[16].veinsmobility acceleration ETV
vector 84 RSUExampleScenario.node[16].veinsmobility co2emission ETV
vector 85 RSUExampleScenario.node[17].veinsmobility posx ETV
vector 86 RSUExampleScenario.node[17].veinsmobility posy ETV
vector 87 RSUExampleScenario.node[17].veinsmobility speed ETV
vector 88 RSUExampleScenario.node[17].veinsmobility acceleration ETV
vector 89 RSUExampleScenario.node[17].veinsmobility co2emission ETV
vector 90 RSUExampleScenario.node[18].veinsmobility posx ETV
vector 91 RSUExampleScenario.node[18].veinsmobility posy ETV
vector 92 RSUExampleScenario.node[18].veinsmobility speed ETV
vector 93 RSUExampleScenario.node[18].veinsmobility acceleration ETV
vector 94 RSUExampleScenario.node[18].veinsmobility co2emission ETV
vector 95 RSUExampleScenario.node[19].veinsmobility posx ETV
vector 96 RSUExampleScenario.node[19].veinsmobility posy ETV
vector 97 RSUExampleScenario.node[19].veinsmobility speed ETV
vector 98 RSUExampleScenario.node[19].veinsmobility acceleration ETV
vector 99 RSUExampleScenario.node[19].veinsmobility co2emission ETV
vector 100 RSUExampleScenario.node[20].veinsmobility posx ETV
vector 101 RSUExampleScenario.node[20].veinsmobility posy ETV
vector 102 RSUExampleScenario.node[20].veinsmobility speed ETV
vector 103 RSUExampleScenario.node[20].veinsmobility acceleration ETV
vector 104 RSUExampleScenario.node[20].veinsmobility co2emission ETV
vector 105 RSUExampleScenario.node[21].veinsmobility posx ETV
vector 106 RSUExampleScenario.node[21].veinsmobility posy ETV
vector 107 RSUExampleScenario.node[21].veinsmobility speed ETV
vector 108 RSUExampleScenario.node[21].veinsmobility acceleration ETV
vector 109 RSUExampleScenario.node[21].veinsmobility co2emission ETV
vector 110 RSUExampleScenario.node[22].veinsmobility posx ETV
vector 111 RSUExampleScenario.node[22].veinsmobility posy ETV
vector 112 RSUExampleScenario.node[22].veinsmobility speed ETV
vector 113 RSUExampleScenario.node[22].veinsmobility acceleration ETV
vector 114 RSUExampleScenario.node[22].veinsmobility co2emission ETV
vector 115 RSUExampleScenario.node[23].veinsmobility posx ETV
vector 116 RSUExampleScenario.node[23].veinsmobility posy ETV
vector 117 RSUExampleScenario.node[23].veinsmobility speed ETV
vector 118 RSUExampleScenario.node[23].veinsmobility acceleration ETV
vector 119 RSUExampleScenario.node[23].veinsmobility co2emission ETV
vector 120 RSUExampleScenario.node[24].veinsmobility posx ETV
vector 121 RSUExampleScenario.node[24].veinsmobility posy ETV
vector 122 RSUExampleScenario.node[24].veinsmobility speed ETV
vector 123 RSUExampleScenario.node[24].veinsmobility acceleration ETV
vector 124 RSUExampleScenario.node[24].veinsmobility co2emission ETV
vector 125 RSUExampleScenario.node[25].veinsmobility posx ETV
vector 126 RSUExampleScenario.node[25].veinsmobility posy ETV
vector 127 RSUExampleScenario.node[25].veinsmobility speed ETV
vector 128 RSUExampleScenario.node[25].veinsmobility acceleration ETV
vector 129 RSUExampleScenario.node[25].veinsmobility co2emission ETV
vector 130 RSUExampleScenario.node[26].veinsmobility posx ETV
vector 131 RSUExampleScenario.node[26].veinsmobility posy ETV
vector 132 RSUExampleScenario.node[26].veinsmobility speed ETV
vector 133 RSUExampleScenario.node[26].veinsmobility acceleration ETV
vector 134 RSUExampleScenario.node[26].veinsmobility co2emission ETV
vector 135 RSUExampleScenario.node[27].veinsmobility posx ETV
vector 136 RSUExampleScenario.node[27].veinsmobility posy ETV
vector 137 RSUExampleScenario.node[27].veinsmobility speed ETV
vector 138 RSUExampleScenario.node[27].veinsmobility acceleration ETV
vector 139 RSUExampleScenario.node[27].veinsmobility co2emission ETV
vector 140 RSUExampleScenario.node[28].veinsmobility posx ETV
vector 141 RSUExampleScenario.node[28].veinsmobility posy ETV
vector 142 RSUExampleScenario.node[28].veinsmobility speed ETV
vector 143 RSUExampleScenario.node[28].veinsmobility acceleration ETV
vector 144 RSUExampleScenario.node[28].veinsmobility co2emission ETV
vector 145 RSUExampleScenario.node[29].veinsmobility posx ETV
vector 146 RSUExampleScenario.node[29].veinsmobility posy ETV
vector 147 RSUExampleScenario.node[29].veinsmobility speed ETV
vector 148 RSUExampleScenario.node[29].veinsmobility acceleration ETV
vector 149 RSUExampleScenario.node[29].veinsmobility co2emission ETV
vector 150 RSUExampleScenario.node[30].veinsmobility posx ETV
vector 151 RSUExampleScenario.node[30].veinsmobility posy ETV
vector 152 RSUExampleScenario.node[30].veinsmobility speed ETV
vector 153 RSUExampleScenario.node[30].veinsmobility acceleration ETV
vector 154 RSUExampleScenario.node[30].veinsmobility co2emission ETV
vector 155 RSUExampleScenario.node[31].veinsmobility posx ETV
vector 156 RSUExampleScenario.node[31].veinsmobility posy ETV
vector 157 RSUExampleScenario.node[31].veinsmobility speed ETV
vector 158 RSUExampleScenario.node[31].veinsmobility acceleration ETV
vector 159 RSUExampleScenario.node[31].veinsmobility co2emission ETV
vector 160 RSUExampleScenario.node[32].veinsmobility posx ETV
vector 161 RSUExampleScenario.node[32].veinsmobility posy ETV
vector 162 RSUExampleScenario.node[32].veinsmobility speed ETV
vector 163 RSUExampleScenario.node[32].veinsmobility acceleration ETV
vector 164 RSUExampleScenario.node[32].veinsmobility co2emission ETV
vector 165 RSUExampleScenario.node[33].veinsmobility posx ETV
vector 166 RSUExampleScenario.node[33].veinsmobility posy ETV
vector 167 RSUExampleScenario.node[33].veinsmobility speed ETV
vector 168 RSUExampleScenario.node[33].veinsmobility acceleration ETV
vector 169 RSUExampleScenario.node[33].veinsmobility co2emission ETV
vector 170 RSUExampleScenario.node[34].veinsmobility posx ETV
vector 171 RSUExampleScenario.node[34].veinsmobility posy ETV
vector 172 RSUExampleScenario.node[34].veinsmobility speed ETV
vector 173 RSUExampleScenario.node[34].veinsmobility acceleration ETV
vector 174 RSUExampleScenario.node[34].veinsmobility co2emission ETV
vector 175 RSUExampleScenario.node[35].veinsmobility posx ETV
vector 176 RSUExampleScenario.node[35].veinsmobility posy ETV
vector 177 RSUExampleScenario.node[35].veinsmobility speed ETV
vector 178 RSUExampleScenario.node[35].veinsmobility acceleration ETV
vector 179 RSUExampleScenario.node[35].veinsmobility co2emission ETV
vector 180 RSUExampleScenario.node[36].veinsmobility posx ETV
vector 181 RSUExampleScenario.node[36].veinsmobility posy ETV
vector 182 RSUExampleScenario.node[36].veinsmobility speed ETV
vector 183 RSUExampleScenario.node[36].veinsmobility acceleration ETV
vector 184 RSUExampleScenario.node[36].veinsmobility co2emission ETV
vector 185 RSUExampleScenario.node[37].veinsmobility posx ETV
vector 186 RSUExampleScenario.node[37].veinsmobility posy ETV
vector 187 RSUExampleScenario.node[37].veinsmobility speed ETV
vector 188 RSUExampleScenario.node[37].veinsmobility acceleration ETV
vector 189 RSUExampleScenario.node[37].veinsmobility co2emission ETV
vector 190 RSUExampleScenario.node[38].veinsmobility posx ETV
vector 191 RSUExampleScenario.node[38].veinsmobility posy ETV
vector 192 RSUExampleScenario.node[38].veinsmobility speed ETV
vector 193 RSUExampleScenario.node[38].veinsmobility acceleration ETV
vector 194 RSUExampleScenario.node[38].veinsmobility co2emission ETV
vector 195 RSUExampleScenario.node[39].veinsmobility posx ETV
vector 196 RSUExampleScenario.node[39].veinsmobility posy ETV
vector 197 RSUExampleScenario.node[39].veinsmobility speed ETV
vector 198 RSUExampleScenario.node[39].veinsmobility acceleration ETV
vector 199 RSUExampleScenario.node[39].veinsmobility co2emission ETV
vector 200 RSUExampleScenario.node[40].veinsmobility posx ETV
vector 201 RSUExampleScenario.node[40].veinsmobility posy ETV
vector 202 RSUExampleScenario.node[40].veinsmobility speed ETV
vector 203 RSUExampleScenario.node[40].veinsmobility acceleration ETV
vector 204 RSUExampleScenario.node[40].veinsmobility co2emission ETV
vector 205 RSUExampleScenario.node[41].veinsmobility posx ETV
vector 206 RSUExampleScenario.node[41].veinsmobility posy ETV
vector 207 RSUExampleScenario.node[41].veinsmobility speed ETV
vector 208 RSUExampleScenario.node[41].veinsmobility acceleration ETV
vector 209 RSUExampleScenario.node[41].veinsmobility co2emission ETV
vector 210 RSUExampleScenario.node[42].veinsmobility posx ETV
vector 211 RSUExampleScenario.node[42].veinsmobility posy ETV
vector 212 RSUExampleScenario.node[42].veinsmobility speed ETV
vector 213 RSUExampleScenario.node[42].veinsmobility acceleration ETV
vector 214 RSUExampleScenario.node[42].veinsmobility co2emission ETV
vector 215 RSUExampleScenario.node[43].veinsmobility posx ETV
vector 216 RSUExampleScenario.node[43].veinsmobility posy ETV
vector 217 RSUExampleScenario.node[43].veinsmobility speed ETV
vector 218 RSUExampleScenario.node[43].veinsmobility acceleration ETV
vector 219 RSUExampleScenario.node[43].veinsmobility co2emission ETV
vector 220 RSUExampleScenario.node[44].veinsmobility posx ETV
vector 221 RSUExampleScenario.node[44].veinsmobility posy ETV
vector 222 RSUExampleScenario.node[44].veinsmobility speed ETV
vector 223 RSUExampleScenario.node[44].veinsmobility acceleration ETV
vector 224 RSUExampleScenario.node[44].veinsmobility co2emission ETV
vector 225 RSUExampleScenario.node[45].veinsmobility posx ETV
vector 226 RSUExampleScenario.node[45].veinsmobility posy ETV
vector 227 RSUExampleScenario.node[45].veinsmobility speed ETV
vector 228 RSUExampleScenario.node[45].veinsmobility acceleration ETV
vector 229 RSUExampleScenario.node[45].veinsmobility co2emission ETV
vector 230 RSUExampleScenario.node[46].veinsmobility posx ETV
vector 231 RSUExampleScenario.node[46].veinsmobility posy ETV
vector 232 RSUExampleScenario.node[46].veinsmobility speed ETV
vector 233 RSUExampleScenario.node[46].veinsmobility acceleration ETV
vector 234 RSUExampleScenario.node[46].veinsmobility co2emission ETV
vector 235 RSUExampleScenario.node[47].veinsmobility posx ETV
vector 236 RSUExampleScenario.node[47].veinsmobility posy ETV
vector 237 RSUExampleScenario.node[47].veinsmobility speed ETV
vector 238 RSUExampleScenario.node[47].veinsmobility acceleration ETV
vector 239 RSUExampleScenario.node[47].veinsmobility co2emission ETV
vector 240 RSUExampleScenario.node[48].veinsmobility posx ETV
vector 241 RSUExampleScenario.node[48].veinsmobility posy ETV
vector 242 RSUExampleScenario.node[48].veinsmobility speed ETV
vector 243 RSUExampleScenario.node[48].veinsmobility acceleration ETV
vector 244 RSUExampleScenario.node[48].veinsmobility co2emission ETV
vector 245 RSUExampleScenario.node[49].veinsmobility posx ETV
vector 246 RSUExampleScenario.node[49].veinsmobility posy ETV
vector 247 RSUExampleScenario.node[49].veinsmobility speed ETV
vector 248 RSUExampleScenario.node[49].veinsmobility acceleration ETV
vector 249 RSUExampleScenario.node[49].veinsmobility co2emission ETV
vector 250 RSUExampleScenario.node[50].veinsmobility posx ETV
vector 251 RSUExampleScenario.node[50].veinsmobility posy ETV
vector 252 RSUExampleScenario.node[50].veinsmobility speed ETV
vector 253 RSUExampleScenario.node[50].veinsmobility acceleration ETV
vector 254 RSUExampleScenario.node[50].veinsmobility co2emission ETV
vector 255 RSUExampleScenario.node[51].veinsmobility posx ETV
vector 256 RSUExampleScenario.node[51].veinsmobility posy ETV
vector 257 RSUExampleScenario.node[51].veinsmobility speed ETV
vector 258 RSUExampleScenario.node[51].veinsmobility acceleration ETV
vector 259 RSUExampleScenario.node[51].veinsmobility co2emission ETV
vector 260 RSUExampleScenario.node[52].veinsmobility posx ETV
vector 261 RSUExampleScenario.node[52].veinsmobility posy ETV
vector 262 RSUExampleScenario.node[52].veinsmobility speed ETV
vector 263 RSUExampleScenario.node[52].veinsmobility acceleration ETV
vector 264 RSUExampleScenario.node[52].veinsmobility co2emission ETV
vector 265 RSUExampleScenario.node[53].veinsmobility posx ETV
vector 266 RSUExampleScenario.node[53].veinsmobility posy ETV
vector 267 RSUExampleScenario.node[53].veinsmobility speed ETV
vector 268 RSUExampleScenario.node[53].veinsmobility acceleration ETV
vector 269 RSUExampleScenario.node[53].veinsmobility co2emission ETV
vector 270 RSUExampleScenario.node[54].veinsmobility posx ETV
vector 271 RSUExampleScenario.node[54].veinsmobility posy ETV
vector 272 RSUExampleScenario.node[54].veinsmobility speed ETV
vector 273 RSUExampleScenario.node[54].veinsmobility acceleration ETV
vector 274 RSUExampleScenario.node[54].veinsmobility co2emission ETV
vector 275 RSUExampleScenario.node[55].veinsmobility posx ETV
vector 276 RSUExampleScenario.node[55].veinsmobility posy ETV
vector 277 RSUExampleScenario.node[55].veinsmobility speed ETV
vector 278 RSUExampleScenario.node[55].veinsmobility acceleration ETV
vector 279 RSUExampleScenario.node[55].veinsmobility co2emission ETV
vector 280 RSUExampleScenario.node[56].veinsmobility posx ETV
vector 281 RSUExampleScenario.node[56].veinsmobility posy ETV
vector 282 RSUExampleScenario.node[56].veinsmobility speed ETV
vector 283 RSUExampleScenario.node[56].veinsmobility acceleration ETV
vector 284 RSUExampleScenario.node[56].veinsmobility co2emission ETV
vector 285 RSUExampleScenario.node[57].veinsmobility posx ETV
vector 286 RSUExampleScenario.node[57].veinsmobility posy ETV
vector 287 RSUExampleScenario.node[57].veinsmobility speed ETV
vector 288 RSUExampleScenario.node[57].veinsmobility acceleration ETV
vector 289 RSUExampleScenario.node[57].veinsmobility co2emission ETV
vector 290 RSUExampleScenario.node[58].veinsmobility posx ETV
vector 291 RSUExampleScenario.node[58].veinsmobility posy ETV
vector 292 RSUExampleScenario.node[58].veinsmobility speed ETV
vector 293 RSUExampleScenario.node[58].veinsmobility acceleration ETV
vector 294 RSUExampleScenario.node[58].veinsmobility co2emission ETV
vector 295 RSUExampleScenario.node[59].veinsmobility posx ETV
vector 296 RSUExampleScenario.node[59].veinsmobility posy ETV
vector 297 RSUExampleScenario.node[59].veinsmobility speed ETV
vector 298 RSUExampleScenario.node[59].veinsmobility acceleration ETV
vector 299 RSUExampleScenario.node[59].veinsmobility co2emission ETV
vector 300 RSUExampleScenario.node[60].veinsmobility posx ETV
vector 301 RSUExampleScenario.node[60].veinsmobility posy ETV
vector 302 RSUExampleScenario.node[60].veinsmobility speed ETV
vector 303 RSUExampleScenario.node[60].veinsmobility acceleration ETV
vector 304 RSUExampleScenario.node[60].veinsmobility co2emission ETV
vector 305 RSUExampleScenario.node[61].veinsmobility posx ETV
vector 306 RSUExampleScenario.node[61].veinsmobility posy ETV
vector 307 RSUExampleScenario.node[61].veinsmobility speed ETV
vector 308 RSUExampleScenario.node[61].veinsmobility acceleration ETV
vector 309 RSUExampleScenario.node[61].veinsmobility co2emission ETV
vector 310 RSUExampleScenario.node[62].veinsmobility posx ETV
vector 311 RSUExampleScenario.node[62].veinsmobility posy ETV
vector 312 RSUExampleScenario.node[62].veinsmobility speed ETV
vector 313 RSUExampleScenario.node[62].veinsmobility acceleration ETV
vector 314 RSUExampleScenario.node[62].veinsmobility co2emission ETV
vector 315 RSUExampleScenario.node[63].veinsmobility posx ETV
vector 316 RSUExampleScenario.node[63].veinsmobility posy ETV
vector 317 RSUExampleScenario.node[63].veinsmobility speed ETV
vector 318 RSUExampleScenario.node[63].veinsmobility acceleration ETV
vector 319 RSUExampleScenario.node[63].veinsmobility co2emission ETV
vector 320 RSUExampleScenario.node[64].veinsmobility posx ETV
vector 321 RSUExampleScenario.node[64].veinsmobility posy ETV
vector 322 RSUExampleScenario.node[64].veinsmobility speed ETV
0	23524 5398 11 1213474 1 194 194 1477.3727016147 2450.6261800874 410560.36608277 883143972.57123
1	28922 5404 11 1213474 1 194 194 1428.3600711795 2120.9336178154 366697.59706857 701672365.63994
2	34326 4697 40 1213474 2 194 193 0 13.99905962375 1891.1417355437 25618.198216357
3	39023 4985 69 1213474 3 194 192 -4.5 2.2219942613752 9.8338457711687 137.08335733275
4	44008 4815 69 1213474 3 194 192 0.973 9.0459701824403 396.20525588601 1185.343807447
5	48823 5338 98 1213474 4 194 191 1487.4645389828 2450.472728043 404957.33232922 872546909.4025
6	54161 5331 98 1213474 4 194 191 1439.4914562181 2120.5733974501 361390.31758016 692043689.81074
7	59492 4881 160 1213474 5 194 190 0 13.997036629766 1876.6255300687 25303.438018103
8	64373 5215 222 1213474 6 194 189 -4.4608324981877 2.0360211738362 9.842543350996 108.75848943682
9	69588 4848 222 1213474 6 194 189 0.973 8.4455276517466 390.09489213312 1146.6820683391
10	74436 5459 284 1213474 7 194 188 1501.2446566073 2450.6586223125 399520.1109607 862470218.0801
11	79895 5420 284 1213474 7 194 188 1445.1831362136 2120.9586522365 355865.553197 681687037.7276
12	85315 5035 394 1213474 8 194 187 0 13.999929656812 1863.3882978259 25105.446492332
13	90350 5361 506 1213474 9 194 186 -4.439656564949 2.2214338466385 9.9583284284811 104.57302857187
14	95711 4983 506 1213474 9 194 186 0.973 8.9511148070457 386.26416575718 1146.5629822566
15	100694 5367 618 1213474 10 194 185 1960.2439749129 2414.8652957816 404636.34365111 888168435.59359
16	106061 5372 618 1213474 10 194 185 1096.5148183648 1908.3543540332 286951.81196598 455150461.84291
17	111433 4922 794 1213474 11 194 184 0 13.999648582141 1795.2361853087 22302.892245921
18	116355 5219 1000 1213474 12 194 183 -4.4867538541235 2.2376299173487 9.9795106832851 194.0753582443
19	121574 4877 1000 1213474 12 194 183 0.973 8.9930877519939 409.76261399402 1462.7905808696
20	126451 5298 1177 1213474 13 194 182 1539.7900386908 2414.9020294819 363504.17059574 733780468.60598
21	131749 5289 1177 1213474 13 194 182 1141.9376401408 1908.1945011951 272548.21399806 418184137.55108
22	137038 5271 1423 1213474 14 194 181 4.1202440707026 12.264189693921 1965.3919392379 22171.733323685
23	142309 5614 1720 1213474 15 194 180 -4.5 2.254553113936 8.0239705333547 152.05069532495
24	147923 5135 1720 1213474 15 194 180 0.973 7.4221751260776 395.47680167719 1210.9523939367
25	153058 5204 1964 1213474 16 194 179 1960.6838828764 2414.866372544 390948.05231782 857736658.23982
26	158262 5219 1964 1213474 16 194 179 1367.3215139797 1907.8794875238 293871.05772638 485868703.84179
27	163481 4876 2291 1213474 17 194 178 0 13.999337144052 1465.9045203719 16556.68280457
28	168357 5158 2694 1213474 18 194 177 -4.4188951245207 2.12803005449 7.8243617448965 149.17450934516
29	173515 4635 2694 1213474 18 194 177 0.973 8.8530434321966 352.435736249 1161.4560203044
30	178150 5140 3025 1213474 19 194 176 1741.0367875989 2414.8588002162 363824.80006321 756221716.14504
31	183290 5134 3025 1213474 19 194 176 1260.7928502867 2051.7439627601 286052.34198407 475733087.28459
32	188424 5104 3449 1213474 20 194 175 4.067372106413 13.131167914875 2049.7212845698 24914.048696592
33	193528 5484 3963 1213474 21 194 174 -4.4973996428873 2.426399582806 7.7320915367243 101.84720452714
34	199012 4977 3963 1213474 21 194 174 0.973 8.102781163876 377.54238127721 1119.2365172937
35	203989 5052 4483 1213474 22 194 173 1922.948963508 2414.8618358603 359020.92468679 747982168.86566
36	209041 5045 4483 1213474 22 194 173 1373.2828496099 1907.0758198313 278433.93174829 452143020.3294
37	214086 5000 5018 1213474 23 194 172 0 10.616823161357 1486.0956733414 13839.577433384
38	219086 5392 5667 1213474 24 194 171 -4.4551297367504 2.2986417025537 2.2731676000708 103.41345666445
39	224478 4900 5667 1213474 24 194 171 0.973 6.9467622552783 307.67846946731 696.15589554136
40	229378 4971 6318 1213474 25 194 170 1872.0846619126 2414.8775742606 351008.49417859 727978050.62144
41	234349 4967 6318 1213474 25 194 170 1220.1085495986 1906.5536021003 270501.56923521 435894927.08437
42	239316 4944 6990 1213474 26 194 169 1.2253489098516 13.998879656948 1565.2357048606 15436.238725981
43	244260 5271 7795 1213474 27 194 168 -3.6107544545643 2.0655443549814 4.8437275310559 123.05462862489
44	249531 4707 7795 1213474 27 194 168 0.973 8.5102802357127 335.94658421799 1002.738726618
45	254238 4891 8599 1213474 28 194 167 1237.2487738025 2438.3389733275 331992.40631498 687188498.03336
46	259129 4892 8599 1213474 28 194 167 1096.2503397604 1701.0077475719 220100.51610541 296463645.59979
47	264021 4860 9407 1213474 29 194 166 3.9377082390983 13.999929352831 2004.3815920137 25020.528806357
48	268881 5140 10359 1213474 30 194 165 -4.4921484272173 2.4003661825159 10.052405569994 231.29755641809
49	274021 4669 10359 1213474 30 194 165 0.973 8.329260681829 431.4649689461 1702.8625436123
50	278690 4824 11308 1213474 31 194 164 1885.1137447422 2438.354055082 366767.95978741 823430760.56303
51	283514 4822 11308 1213474 31 194 164 1217.0517521556 1701.0111562023 224520.23110895 311333032.83217
52	288336 4112 12395 1213474 32 194 163 0 13.999022270213 1148.4011060953 12218.06324513
53	292448 4310 13491 1213474 33 194 162 -4.5 2.3121179819664 5.2532572617455 141.75184561513
54	296758 4152 13491 1213474 33 194 162 0.973 8.393387603249 301.2860922494 891.81605019054
55	300910 4721 14577 1213474 34 194 161 1632.788787818 2438.4148053855 338540.54792688 724469919.99565
56	305631 4725 14577 1213474 34 194 161 1311.5593646169 1700.9277206128 240920.05020967 362424651.4336
57	310356 4698 15821 1213474 35 194 160 3.9282208109183 13.991250435472 1614.4870119142 17445.757248729
58	315054 5006 17046 1213474 36 194 159 -4.3923687130034 2.283192629118 3.9102306312179 132.69272403439
59	320060 4541 17046 1213474 36 194 159 0.973 8.3587653316765 340.60419189467 1089.077054142
60	324601 4641 18239 1213474 37 194 158 1669.5395916278 2414.9021823094 322519.42024701 663534003.47243
61	329242 4639 18239 1213474 37 194 158 1367.3821095787 1906.8012029203 248657.21504625 396157639.0613
62	333881 4612 19588 1213474 38 194 157 2.289686574423 12.942697989874 1673.2658671975 18963.049239187
63	338493 4924 20940 1213474 39 194 156 -4.1847916769907 2.0982178482902 3.9015668410825 90.562131721014
64	343417 4451 20940 1213474 39 194 156 0.973 7.3384951132125 319.10185387121 896.23701308989
65	347868 4460 22264 1213474 40 194 155 2106.5553537463 2438.406304336 362285.22928762 848245223.24665
66	352328 4560 22264 1213474 40 194 155 1095.6973582422 1914.4626224637 238707.39206223 375381437.45561
67	356888 4356 23856 1213474 41 194 154 0 13.998459793886 1444.3270143817 16135.899365767
68	361244 4643 25507 1213474 42 194 153 -4.4758464491784 2.2389730260172 4.2752070547382 148.92694212517
69	365887 4280 25507 1213474 42 194 153 0.973 7.8643613433406 315.1427631389 924.34846094072
70	370167 4374 28187 1213474 43 194 152 2068.3700927369 2438.4439408095 355922.23616232 834859788.36205
71	374541 4470 28187 1213474 43 194 152 1216.969090146 1915.8360987548 237553.12278226 377546223.73262
72	379011 4435 29889 1213474 44 194 151 0 13.998555075047 1422.123051984 16188.070745433
73	383446 4706 32384 1213474 45 194 150 -3.5318924051245 2.2607822162751 4.6030817274975 127.82379265969
74	388152 4248 32384 1213474 45 194 150 0.973 8.1887170833538 310.13892535635 921.225669666
75	392400 4234 34080 1213474 46 194 149 2334.4509732507 2414.8510013719 353551.28145239 838993922.20125
76	396634 4398 34080 1213474 46 194 149 1578.4601262445 1915.7324944474 254504.89579196 435350786.10278
77	401032 3582 36101 1213474 47 194 148 0 13.989375520062 676.97111810329 8539.5123195733
78	404614 3715 38147 1213474 48 194 147 -2.7046499177787 2.062786038483 -3.9229378291342 79.032618194363
79	408329 3542 38147 1213474 48 194 147 0.973 8.0010354614516 224.99398270109 515.33931186432
80	411871 4309 40188 1213474 49 194 146 1542.2207967223 2450.5383389981 314650.22383217 690981545.85239
81	416180 4311 40188 1213474 49 194 146 1480.0802911781 2133.9778726017 271186.46697456 509629845.65249
82	420491 4285 42320 1213474 50 194 145 4.0894883109599 13.999319291268 1911.262508184 25727.153909464
83	424776 4568 44682 1213474 51 194 144 -4.4831268327449 2.1754752035276 9.7826828978636 168.54823324915
84	429344 4175 44682 1213474 51 194 144 0.973 8.4592540490888 374.79970085341 1383.8318386064
85	433519 4225 46898 1213474 52 194 143 1961.6649997332 2414.8763605386 302814.71412257 643458333.62641
86	437744 4229 46898 1213474 52 194 143 1368.2590328762 1908.1913285377 233701.13570935 385877720.53358
87	441973 4201 49268 1213474 53 194 142 4.2116299004545 10.058711121827 1362.8283043009 13270.054933841
88	446174 4504 51890 1213474 54 194 141 -3.8721495473343 2.3366280407412 1.8171101664368 53.96240387409
89	450678 4119 51890 1213474 54 194 141 0.973 6.3424306009375 257.89744056493 573.69705956219
90	454797 4141 54340 1213474 55 194 140 1816.1651588293 2461.1175121724 318077.56213042 728019935.70884
91	458938 4141 54340 1213474 55 194 140 1308.1511705779 1700.9692227561 209564.08421651 315533642.26915
92	463079 4112 56961 1213474 56 194 139 3.901668747867 13.997484843275 1679.3250550021 21094.466996962
93	467191 4371 59871 1213474 57 194 138 -4.474074603324 2.3026361995656 5.2711279511999 154.40963630912
94	471562 3942 59871 1213474 57 194 138 0.973 8.4005355312476 340.02936283514 1254.7955629251
95	475504 4057 62601 1213474 58 194 137 1960.3647356606 2414.8852083851 289454.79042859 613572972.36079
96	479561 4053 62601 1213474 58 194 137 1368.0453763101 1908.1264183 224066.3865576 370327204.22713
97	483614 4028 65467 1213474 59 194 136 3.9791191346081 13.031789059137 1351.2595674964 13759.008405242
98	487642 4302 68543 1213474 60 194 135 -2.3138706613427 2.4411152891186 2.0330740725471 54.11826024722
99	491944 3865 68543 1213474 60 194 135 0.973 7.1347674898554 253.89854205843 669.52241321051
100	495809 4118 71555 1213474 61 194 134 2334.0801409993 2414.8699699399 314102.36879234 736305004.51691
101	499927 4119 71555 1213474 61 194 134 1578.453161085 1696.0062031522 223168.04118895 371730194.62116
102	504046 2625 74681 1213474 62 194 133 0 13.99960063027 269.6627211871 3119.7091787456
103	506671 2647 77926 1213474 63 194 132 -3.5600903092696 2.1890362265427 7.3992643100067 81.2648015881
104	509318 2961 77926 1213474 63 194 132 0.973 7.6910565969086 188.81745809644 511.50064926384
105	512279 4023 80965 1213474 64 194 131 1945.1515541453 2414.8340425703 276895.55885294 587278033.48385
106	516302 4021 80965 1213474 64 194 131 1367.2911337391 1907.8114458686 213639.71853681 352015529.69106
107	520323 3990 84061 1213474 65 194 130 4.3156945572413 12.296798659269 1368.8109587486 14683.295399103
108	524313 4234 87266 1213474 66 194 129 -2.7587205939637 2.1320288879331 7.9468633719138 61.558188239489
109	528547 3794 87266 1213474 66 194 129 0.973 7.7054883200863 265.57364331061 788.87154949958
110	532341 3882 90387 1213474 67 194 128 2334.4307895296 2414.8552878659 300466.15104674 705341970.93958
111	536223 3940 90387 1213474 67 194 128 1578.4585522665 1695.6737613715 213437.06572382 355963920.9167
112	540163 2958 93557 1213474 68 194 127 0 13.963790952056 256.48721062222 2958.5341953947
113	543121 3039 96826 1213474 69 194 126 -3.116130625827 2.0463558359235 5.9100856484755 68.55625522088
114	546160 3063 96826 1213474 69 194 126 0.973 8.398843337342 180.01204575432 461.64533006334
115	549223 3851 99920 1213474 70 194 125 1962.2623777066 2414.8560209217 264693.32748268 562697364.66757
116	553074 3852 99920 1213474 70 194 125 1484.7647738494 1907.7036290811 209618.52361615 353596513.93859
117	556926 3808 103281 1213474 71 194 124 0.26 10.406262871234 1176.8930967916 11653.904645734
118	560734 4075 106778 1213474 72 194 123 -4.4571941347653 2.2217421344365 2.3267927249893 107.88603912547
119	564809 3712 106778 1213474 72 194 123 0.973 6.212966659309 237.99784660058 584.70372205289
120	568521 3758 110131 1213474 73 194 122 1959.8471773997 2414.8623259083 258251.79545878 548739978.95045
121	572279 3758 110131 1213474 73 194 122 1485.1425100155 1906.4319063108 204947.60921478 346310018.77055
122	576037 3723 113499 1213474 74 194 121 2.3980755380515 13.009697599791 1166.038963852 11676.604427426
123	579760 3952 117254 1213474 75 194 120 -2.798775375147 2.0857788053039 2.196261301138 72.894083564007
124	583712 3546 117254 1213474 75 194 120 0.973 6.5565322392823 233.7022362532 619.36222995333
125	587258 3661 120773 1213474 76 194 119 1709.2629768519 2450.4382429515 262472.33575805 585824799.80998
126	590919 3668 120773 1213474 76 194 119 1578.4544356754 2120.8630819749 223557.94050389 423643684.17341
127	594587 3636 124426 1213474 77 194 118 4.2126693268536 13.999291465366 1573.8388949968 21367.336662339
128	598223 3864 128317 1213474 78 194 117 -4.4960153496815 2.279495850082 9.6714231152742 105.53112132857
129	602087 3567 128317 1213474 78 194 117 0.973 8.5868983585779 294.02216686028 1015.4296484113
130	605654 3574 131697 1213474 79 194 116 1743.1142982963 2450.4726782743 257562.48036575 577972270.30808
131	609228 3579 131697 1213474 79 194 116 1578.4556358522 2120.5752688916 218595.74636456 415438933.49608
132	612807 3544 135422 1213474 80 194 115 3.9938330398299 13.999400578239 1528.4488607108 20676.683926984
133	616351 3779 139450 1213474 81 194 114 -4.4955512110352 2.1604120537243 9.9284474499608 85.250234095585
134	620130 3468 139450 1213474 81 194 114 0.973 8.3215502032894 279.78902173376 937.29250615479
135	623598 3491 143155 1213474 82 194 113 1772.8449395378 2450.5627255412 252292.07897968 568706625.89536
136	627089 3483 143155 1213474 82 194 113 1578.4522597445 2120.763810968 213570.00131701 407033049.23363
137	630572 3456 147266 1213474 83 194 112 3.9153097493782 13.997543242625 1486.9108823537 20120.842589128
138	634028 3685 151324 1213474 84 194 111 -4.4776700461924 2.1422753776235 9.9599944955601 86.198624682946
139	637713 3371 151324 1213474 84 194 111 0.973 9.2589617095672 274.6028149942 953.61974704184
140	641084 3398 155341 1213474 85 194 110 1801.3166355444 2450.6514318424 246868.53432641 558858819.15007
141	644482 3403 155341 1213474 85 194 110 1578.4504792597 2120.9536649156 208419.38569166 398185184.82818
142	647885 3372 159739 1213474 86 194 109 4.0972055585492 13.998108282317 1446.3801014061 19557.271873921
143	651257 3565 164281 1213474 87 194 108 -4.5 2.0629633631324 9.8869102244037 85.866975349329
144	654822 3282 164281 1213474 87 194 108 0.973 8.0599600779861 270.02665711925 927.6066224877
145	658104 3308 168945 1213474 88 194 107 1967.6670263041 2438.3080526106 242371.35214901 551687844.23146
146	661412 3308 168945 1213474 88 194 107 1315.2013143981 1701.0466332817 161286.35035293 244423173.48593
147	664720 3278 173602 1213474 89 194 106 3.9568890581429 13.999082943567 1181.9067983546 14139.908628239
148	667998 3460 178617 1213474 90 194 105 -4.4892833418176 2.0961374205048 2.2075159016273 122.09750887402
149	671458 3163 178617 1213474 90 194 105 0.973 8.4563439431208 247.2072979974 876.54778819458
150	674621 3223 183745 1213474 91 194 104 2334.441921 2414.8500212251 244583.72955202 575229576.40503
151	677844 3228 183745 1213474 91 194 104 1578.4604861494 1695.6865812484 173541.54877589 289648939.28515
152	681072 2354 188830 1213474 92 194 103 0 13.992575319903 219.11308667817 2664.7086450136
153	683426 2388 194415 1213474 93 194 102 -3.4266611370397 2.1364628035761 -3.979133886424 54.218845766876
154	685814 2447 194415 1213474 93 194 102 0.973 9.181045712696 138.51416096374 347.90485064949
155	688261 3128 199506 1213474 94 194 101 2032.0872389835 2438.4726044848 232657.12228538 537305602.31839
156	691389 3127 199506 1213474 94 194 101 1217.1153525813 1701.123947883 145885.92583036 213322432.11382
157	694516 3103 207369 1213474 95 194 100 3.9678291881149 13.987529931937 1002.2088335554 10634.876841181
158	697619 3289 213024 1213474 96 194 99 -3.0635890111793 2.1608772365842 5.9463221532886 62.664427786385
159	700908 2933 213024 1213474 96 194 99 0.973 8.7988747861369 208.89826994034 694.61189197048
160	703841 3039 220149 1213474 97 194 98 1982.7408367387 2414.8919013261 211794.45781996 459150183.62298
161	706880 3042 220149 1213474 97 194 98 1578.4451079946 2048.6274809577 179581.09899373 330881274.78649
162	709922 2996 225934 1213474 98 194 97 4.0044662057752 11.704005294745 1101.1472918661 12631.417443934
163	712918 3202 231705 1213474 99 194 96 -3.79 2.2338764812541 7.6865141701445 40.596429439441
164	716120 2965 231705 1213474 99 194 96 0.973 7.4507373297188 200.08062971508 531.41517506289
165	719085 2955 237419 1213474 100 194 95 2141.6277692831 2438.519794078 220820.34730861 514136911.15034
166	722040 2955 237419 1213474 100 194 95 1155.4949790379 1701.0814183028 138108.21823063 203351395.98963
167	724995 2923 243729 1213474 101 194 94 4.0225779173019 13.992125015119 915.19705314913 9535.1935324147
168	727918 3084 249905 1213474 102 194 93 -3.2830654499554 2.0071597481146 4.0816350434939 60.981385405143
169	731002 2814 249905 1213474 102 194 93 0.973 8.5907055800043 194.2622559693 616.75760456795
170	733816 2806 255821 1213474 103 194 92 2334.4042133224 2414.8576788401 216697.63867194 510433889.38855
171	736622 2866 255821 1213474 103 194 92 1578.4576743124 1695.7182473773 153665.2858453 256732250.2418
172	739488 2039 262091 1213474 104 194 91 0 13.999395227314 213.55837980122 2577.6470611427
173	741527 2067 268389 1213474 105 194 90 -3.134243964654 2.0119657556177 -4.0107612413241 50.399951614451
174	743594 2134 268389 1213474 105 194 90 0.973 7.7096949042057 125.55890634462 316.63518415186
175	745728 2772 274292 1213474 106 194 89 2334.393361818 2414.8439727303 210184.65774352 496395207.93238
176	748500 2771 274292 1213474 106 194 89 1578.4627071247 1695.4021037128 149101.1850981 249867148.14432
177	751271 2019 280900 1213474 107 194 88 0 13.991173451126 203.34309690767 2331.5697854629
178	753290 2044 287507 1213474 108 194 87 -1.994676064778 1.9835256144335 -4.0345458147189 39.792007369617
179	755334 2060 287507 1213474 108 194 87 0.973 8.4094512092754 120.74721882872 315.081473073
180	757394 2677 293818 1213474 109 194 86 2334.6502316371 2414.8496499707 203359.85913486 480890946.20656
181	760071 2679 293818 1213474 109 194 86 1578.4606224718 1696.0470113996 144247.00843086 242028633.73933
182	762750 1957 300425 1213474 110 194 85 0 13.989441134604 198.62756048263 2293.7811409501
183	764707 1982 307622 1213474 111 194 84 -2.1978063343332 2.0823663069238 -4.057303982621 41.680082433104
184	766689 1997 307622 1213474 111 194 84 0.973 8.7791199116438 117.80866096379 310.82282724862
185	768686 2579 314423 1213474 112 194 83 1963.2859559903 2414.8778829688 177938.40204202 383135423.93151
186	771265 2581 314423 1213474 112 194 83 1550.2712317146 1908.1850928813 143269.76961542 248224591.32999
187	773846 2546 321290 1213474 113 194 82 4.1885290217938 12.236893847725 965.57450225958 11519.213267702
188	776392 2711 328487 1213474 114 194 81 -4.461793461939 2.1561278558779 7.9947245917097 43.120442559588
189	779103 2501 328487 1213474 114 194 81 0.973 7.239359372097 177.75495338905 500.28751700717
190	781604 2480 335486 1213474 115 194 80 1959.6160593245 2414.8697937437 171387.16030075 368799203.7104
191	784084 2486 335486 1213474 115 194 80 1562.7127803806 1908.3652578816 138373.38745358 240215797.94616
192	786570 2456 342493 1213474 116 194 79 3.9896170552467 13.114747634427 948.50982192245 11597.131130346
193	789026 2600 350181 1213474 117 194 78 -3.1525589360868 2.1033674203814 8.1906085813717 41.009457168509
194	791626 2383 350181 1213474 117 194 78 0.973 7.1447885295051 174.97308793054 534.37541259537
195	794009 2393 357415 1213474 118 194 77 2140.0275931756 2450.3963300833 182736.97938252 434241949.37388
196	796402 2397 357415 1213474 118 194 77 1578.4500804199 2120.6087250151 145099.27614055 276472831.69712
197	798799 2362 364740 1213474 119 194 76 3.9919913046997 13.999353741894 957.89964904428 12426.573592441
198	801161 2500 372243 1213474 120 194 75 -4.4993655437743 2.1344370174012 5.4759758380017 64.409446976642
199	803661 2280 372243 1213474 120 194 75 0.973 8.7162747438885 179.73307826058 601.0332237784
200	805941 2303 380003 1213474 121 194 74 2298.7249439929 2450.3004395284 178475.8463676 430574090.45662
201	808244 2300 380003 1213474 121 194 74 1578.4582807273 2133.5621961858 139115.47260233 264459690.66843
202	810544 2272 387978 1213474 122 194 73 3.8351924694475 13.992760678825 894.46710528202 11374.660973238
203	812816 2367 395959 1213474 123 194 72 -4.5 2.2656311407522 5.5390784847941 144.31471774745
204	815183 2164 395959 1213474 123 194 72 0.973 8.0747443964193 205.14784012535 875.23707164071
205	817347 2207 404091 1213474 124 194 71 2332.0862829197 2450.3740353822 171567.5589805 414671681.00956
206	819554 2206 404091 1213474 124 194 71 1578.4569896981 2131.5862497771 133197.28121577 252624932.06855
207	821760 2176 412433 1213474 125 194 70 4.0502833165318 13.987551483589 866.85357040112 11146.211976476
208	823936 2277 420942 1213474 126 194 69 -3.3747868651291 2.1360800389526 9.8836717640542 98.080947725784
209	826213 2043 420942 1213474 126 194 69 0.973 8.3540438263349 197.1875749289 842.49072207572
210	828256 2113 429555 1213474 127 194 68 1960.0084117338 2414.876986644 146932.92477453 318996914.66847
211	830369 2115 429555 1213474 127 194 68 1578.4505845876 1908.1879260344 118944.71671142 208709928.91802
212	832484 2085 438388 1213474 128 194 67 4.066280993866 12.613020405111 804.99565427289 9845.5338612582
213	834569 2205 446830 1213474 129 194 66 -4.3878493451509 2.1732841887581 8.4713646564896 45.593225805322
214	836774 2031 446830 1213474 129 194 66 0.973 8.4478087854702 154.2208062024 489.63065486826
215	838805 2027 455103 1213474 130 194 65 1961.0635321434 2414.8767956129 140860.07526342 306682681.77638
216	840832 2029 455103 1213474 130 194 65 1578.4506547339 1907.0550216064 113881.88407279 200161802.32708
217	842861 1991 463890 1213474 131 194 64 3.8626483826811 12.847128141907 776.81729064123 9630.9620781725
218	844852 2091 472783 1213474 132 194 63 -3.08 2.1666801828751 8.9836421886671 41.46089546871
219	846943 1922 472783 1213474 132 194 63 0.973 7.8780435202297 150.93395607203 506.36886056557
220	848865 1928 480753 1213474 133 194 62 1990.1370085428 2414.8587990679 135353.49005395 296724932.8055
221	850793 1931 480753 1213474 133 194 62 1578.4572629705 1908.171970454 109023.79303763 192347662.16376
222	852724 1904 489620 1213474 134 194 61 4.269093682016 12.208957780442 699.83625940378 8162.3173940485
223	854628 2001 498097 1213474 135 194 60 -4.4482835366222 2.1236441557622 7.362273001368 41.326518282756
224	856629 1850 498097 1213474 135 194 60 0.973 7.0843307751542 135.41742369583 402.7051586544
225	858479 1842 508794 1213474 136 194 59 2334.6504345899 2414.8725306566 139780.18990514 331175434.43601
226	860321 1843 508794 1213474 136 194 59 1578.4522208031 1695.3160481276 98684.397620283 165141923.29304
227	862164 1451 517422 1213474 137 194 58 0 13.972700468281 193.8821753254 2303.3100361665
228	863615 1472 527028 1213474 138 194 57 -3.1663243653879 2.0440254338807 -3.8502188604612 52.277364937117
229	865087 1420 527028 1213474 138 194 57 0.973 8.3585439304856 92.46045278882 288.12715674498
230	866507 1748 535011 1213474 139 194 56 2005.1494280336 2414.8643285343 123732.30173621 274353875.3593
231	868255 1750 535011 1213474 139 194 56 1578.4552325802 1907.0699237389 98292.49958359 173168117.36737
232	870005 1710 543845 1213474 140 194 55 4.0048099058661 11.771025457155 613.79650682031 6983.3331546372
233	871715 1805 552976 1213474 141 194 54 -3.08 2.1351546493499 7.6716332189259 38.360146958189
234	873520 1669 552976 1213474 141 194 54 0.973 7.5417168081355 124.24841132689 398.32151096039
235	875189 1650 562382 1213474 142 194 53 2050.7181916371 2414.8520868324 118734.46663085 266665991.5873
236	876839 1652 562382 1213474 142 194 53 1578.4597276691 1907.1033621263 92157.017534837 160817416.48114
237	878491 1620 571431 1213474 143 194 52 4.1631737304534 10.395162178582 518.29282847602 5236.4121127843
238	880111 1703 580903 1213474 144 194 51 -3.0681094760512 2.1270953538478 6.118032953672 28.452757237145
239	881814 1573 580903 1213474 144 194 51 0.973 6.8368958767498 105.54916864557 292.06699820419
240	883387 1562 590220 1213474 145 194 50 2334.1036490068 2438.3784957476 120137.81481737 288714949.76928
241	884949 1557 590220 1213474 145 194 50 1463.7751191203 1700.9682313241 79766.309285512 127563428.67005
242	886506 1532 599808 1213474 146 194 49 4.0101065950242 13.999988189675 526.58671953635 6052.2896917988
243	888038 1590 609922 1213474 147 194 48 -4.4384990756988 2.3408906303649 3.1185348973113 71.670638597097
244	889628 1451 609922 1213474 147 194 48 0.973 7.6421028242343 119.08860814833 456.86839168513
245	891079 1467 620191 1213474 148 194 47 2333.8505191978 2438.4381832003 113028.90730747 271869885.63827
246	892546 1470 620191 1213474 148 194 47 1476.6439129757 1701.0488472544 75299.376593329 120901740.34441
247	894016 1439 629738 1213474 149 194 46 3.9689065368236 13.974840018791 509.3152561728 5976.4391916153
248	895455 1486 639986 1213474 150 194 45 -2.8532082698735 2.094773005785 3.5269459470455 50.131048041507
249	896941 1328 639986 1213474 150 194 45 0.973 7.6466802978007 112.56145502459 428.0072027608
250	898269 1378 649784 1213474 151 194 44 2063.6091220084 2414.8644171649 98830.73314894 222546064.84004
251	899647 1378 649784 1213474 151 194 44 1578.4552000351 1905.8094862234 76284.125044207 132740227.03984
252	901025 1342 660727 1213474 152 194 43 4.0819521769693 12.871945326495 499.06814837042 5988.0031533513
253	902367 1393 671187 1213474 153 194 42 -2.6408877216089 2.1942001467371 5.2134797001053 33.224748280998
254	903760 1255 671187 1213474 153 194 42 0.973 7.4889733844356 98.412626043934 330.87504842934
255	905015 1182 681519 1213474 154 194 41 2334.1800955912 2414.8594131049 98118.208190536 234833504.71019
256	906197 1284 681519 1213474 154 194 41 1578.4570375001 1917.1637295606 71451.721820948 125028769.89764
257	907481 1251 692091 1213474 155 194 40 4.1347161025474 13.994050255623 528.3609029369 7166.8745039606
258	908732 1305 703052 1213474 156 194 39 -0.10746330425609 2.1238681444712 9.8230697526699 19.412282153025
259	910037 1222 703052 1213474 156 194 39 1.667013911789 8.0289272421625 101.41418507658 359.38779886463
260	911259 1193 714245 1213474 157 194 38 2096.9612679109 2414.8752455182 86266.096965873 196219109.94854
261	912452 1192 714245 1213474 157 194 38 1578.4512239201 1873.9063934889 65022.861830954 111590856.68616
262	913644 1158 725797 1213474 158 194 37 4.0487843145551 13.22462867232 460.01087564483 5883.1028424877
263	914802 1207 736872 1213474 159 194 36 -0.1098646374722 1.949854179176 9.133327450907 16.26117942005
264	916009 1130 736872 1213474 159 194 36 1.6037230297108 7.4667682392608 89.913748022507 294.32040698091
265	917139 1096 748535 1213474 160 194 35 2143.4077315761 2414.8884260558 80182.289647884 183947498.5946
266	918235 1099 748535 1213474 160 194 35 1578.4463840956 1829.4778927909 59207.930425877 100377181.88463
267	919334 1065 760138 1213474 161 194 34 4.0185395587591 12.25912583159 393.82463141351 4676.4307878681
268	920399 1109 772735 1213474 162 194 33 -0.11298452417599 2.0541527948156 8.1576976286658 16.335981075359
269	921508 1037 772735 1213474 162 194 33 1.5307334711519 7.834289379374 78.505717994382 254.96594114836
270	922545 1005 784748 1213474 163 194 32 2160.026011228 2414.8369455846 73594.675186085 169464529.50152
271	923550 1005 784748 1213474 163 194 32 1578.4652874563 1813.5818219045 53866.494854244 90852009.652408
272	924555 976 796658 1213474 164 194 31 4.1311679155996 12.782260289416 371.25217201927 4575.6923159164
273	925531 1007 808699 1213474 165 194 30 -0.10973443317227 2.0941445395933 8.6392345861405 16.0991749372
274	926538 941 808699 1213474 165 194 30 1.5738952381084 7.3252460931131 75.818736627778 255.60623938835
275	927479 910 821000 1213474 166 194 29 2334.764432879 2438.7512341116 69485.114964917 166522121.17114
276	928389 914 821000 1213474 166 194 29 1578.4445666876 1748.5266895527 48231.357640645 80305842.364918
277	929303 882 834363 1213474 167 194 28 3.9160432657112 13.997643071278 338.94461362479 4336.5961487732
278	930185 893 850131 1213474 168 194 27 -4.4267453583993 2.1383703456027 10.072425420051 53.874597663916
279	931078 831 850131 1213474 168 194 27 0.973 8.4179420124023 92.283609505331 448.09551068304
280	931909 819 862544 1213474 169 194 26 2334.3127931171 2414.8665084046 61763.426229956 146738474.50191
281	932728 818 862544 1213474 169 194 26 1578.4544321429 1699.8738028789 42704.124457707 70191277.17785
282	933546 787 877329 1213474 170 194 25 3.9950037377036 9.5015506210762 223.40676812184 2039.0237364985
283	934333 809 890747 1213474 171 194 24 -1.9201367732532 1.9264236679068 3.5864101101193 13.88323915984
284	935142 746 890747 1213474 171 194 24 0.973 5.6174073865912 48.599264376331 129.34284546067
285	935888 727 904524 1213474 172 194 23 2333.9008024284 2414.8724209712 54589.363771168 129581269.26197
286	936615 728 904524 1213474 172 194 23 1578.4522610791 1698.4896413628 37720.435155903 61906643.808532
287	937343 696 918203 1213474 173 194 22 4.0144827243693 12.167615387243 209.82773256829 2065.5942356013
288	938039 698 932308 1213474 174 194 21 -0.89456683090042 2.1956133320951 4.49372132862 18.565692827828
289	938737 603 932308 1213474 174 194 21 0.973 7.2024990296682 46.858953110987 185.69155220164
290	939340 636 945669 1213474 175 194 20 2333.8580251306 2414.8759176853 47465.786350946 112664579.24851
291	939976 632 945669 1213474 175 194 20 1578.4509771038 1696.941177615 32695.567491996 53487626.171945
292	940608 603 959417 1213474 176 194 19 4.2429199717288 13.137037259204 195.16741085916 2101.6802368753
293	941211 600 974105 1213474 177 194 18 -0.7941492111924 1.9521948149148 4.8537345123415 17.961098878216
294	941811 493 974105 1213474 177 194 18 0.973 7.0402122191245 44.603886200536 193.14413600572
295	942304 541 988176 1213474 178 194 17 2298.6717999018 2414.8516029345 40233.868675519 95245757.825188
296	942845 542 988176 1213474 178 194 17 1578.4599053534 1680.9602064118 27582.344908052 44774053.950964
297	943387 509 1001518 1213474 179 194 16 4.078768399098 12.686619630468 179.05385112869 2115.7829011707
298	943896 504 1015774 1213474 180 194 15 -0.08894945046166 2.0184895742265 8.5098700477033 16.192656223768
299	944400 480 1015774 1213474 180 194 15 1.6323476576336 7.7042304406744 46.500146015863 198.66815487196
300	944880 448 1029418 1213474 181 194 14 2335.1689065002 2414.8443756959 33337.737824169 79396278.790905
301	945328 443 1029418 1213474 181 194 14 1578.462559158 1657.3903914513 22524.417922716 36249267.880766
302	945771 416 1043816 1213474 182 194 13 3.9872909846903 11.256818104322 128.37620033705 1339.0717805323
303	946187 406 1057743 1213474 183 194 12 -0.059519275010098 1.9168972408003 7.2185607863292 13.180492746195
304	946593 382 1057743 1213474 183 194 12 1.6182153829602 6.046470196294 35.446766848598 140.49265486629
305	946975 352 1071755 1213474 184 194 11 2352.8790147053 2414.8838310639 26302.918754166 62899722.543464
306	947327 352 1071755 1213474 184 194 11 1578.4480713531 1636.5345622022 17587.54984774 28124618.078376
307	947679 319 1085025 1213474 185 194 10 3.837696399361 12.886806565707 103.03940904553 1164.7311514696
308	947998 296 1098896 1213474 186 194 9 -0.12638124879915 2.102108778432 8.9227289175465 16.899146392943
309	948294 288 1098896 1213474 186 194 9 1.5288485741872 7.8268546521319 35.930117157928 183.03980775443
310	948582 255 1113316 1213474 187 194 8 2378.3976876958 2414.8767147393 19212.279407524 46140220.079479
311	948837 254 1113316 1213474 187 194 8 1578.4506844301 1610.687662052 12710.214995202 20194709.184092
312	949091 224 1127762 1213474 188 194 7 4.1151584252836 13.364008893783 67.420991432837 728.29317696202
313	949315 193 1141713 1213474 189 194 6 0.062104334312025 2.0892530973162 9.2488504684992 17.506708209475
314	949508 192 1141713 1213474 189 194 6 2.1751878280335 7.7586574677812 32.076831179889 189.75141678172
315	949700 160 1156030 1213474 190 194 5 2401.3768323852 2414.8719853116 12049.628173252 29038843.064072
316	949860 160 1156030 1213474 190 194 5 1578.4524210515 1587.4129542131 7905.870749115 12500615.264573
317	950020 128 1169860 1213474 191 194 4 4.3285537411007 10.423393648121 29.884646448608 243.92297685483
318	950148 96 1184851 1213474 192 194 3 1.8470506009809 2.2278022711445 6.0948399070208 12.455046503046
319	950244 96 1184851 1213474 192 194 3 4.9724235958374 6.3573020474782 17.086831532919 98.284553963421
320	950340 64 1198888 1213474 193 194 2 2414.8752157554 2414.8752157554 4829.7504315109 11663244.61534
321	950404 64 1198888 1213474 193 194 2 1578.4512348492 1578.4512348492 3156.9024696983 4983016.6015937
322	950468 32 1213474 1213474 194 194 1 4.0776352772458 4.0776352772458 4.0776352772458 16.62710945424
vector 323 RSUExampleScenario.node[64].veinsmobility acceleration ETV
vector 324 RSUExampleScenario.node[64].veinsmobility co2emission ETV
vector 325 RSUExampleScenario.node[65].veinsmobility posx ETV
vector 326 RSUExampleScenario.node[65].veinsmobility posy ETV
vector 327 RSUExampleScenario.node[65].veinsmobility speed ETV
vector 328 RSUExampleScenario.node[65].veinsmobility acceleration ETV
vector 329 RSUExampleScenario.node[65].veinsmobility co2emission ETV
vector 330 RSUExampleScenario.node[66].veinsmobility posx ETV
vector 331 RSUExampleScenario.node[66].veinsmobility posy ETV
vector 332 RSUExampleScenario.node[66].veinsmobility speed ETV
vector 333 RSUExampleScenario.node[66].veinsmobility acceleration ETV
vector 334 RSUExampleScenario.node[66].veinsmobility co2emission ETV
vector 335 RSUExampleScenario.node[67].veinsmobility posx ETV
vector 336 RSUExampleScenario.node[67].veinsmobility posy ETV
vector 337 RSUExampleScenario.node[67].veinsmobility speed ETV
vector 338 RSUExampleScenario.node[67].veinsmobility acceleration ETV
vector 339 RSUExampleScenario.node[67].veinsmobility co2emission ETV
vector 340 RSUExampleScenario.node[68].veinsmobility posx ETV
vector 341 RSUExampleScenario.node[68].veinsmobility posy ETV
vector 342 RSUExampleScenario.node[68].veinsmobility speed ETV
vector 343 RSUExampleScenario.node[68].veinsmobility acceleration ETV
vector 344 RSUExampleScenario.node[68].veinsmobility co2emission ETV
vector 345 RSUExampleScenario.node[69].veinsmobility posx ETV
vector 346 RSUExampleScenario.node[69].veinsmobility posy ETV
vector 347 RSUExampleScenario.node[69].veinsmobility speed ETV
vector 348 RSUExampleScenario.node[69].veinsmobility acceleration ETV
vector 349 RSUExampleScenario.node[69].veinsmobility co2emission ETV
vector 350 RSUExampleScenario.node[70].veinsmobility posx ETV
vector 351 RSUExampleScenario.node[70].veinsmobility posy ETV
vector 352 RSUExampleScenario.node[70].veinsmobility speed ETV
vector 353 RSUExampleScenario.node[70].veinsmobility acceleration ETV
vector 354 RSUExampleScenario.node[70].veinsmobility co2emission ETV
vector 355 RSUExampleScenario.node[71].veinsmobility posx ETV
vector 356 RSUExampleScenario.node[71].veinsmobility posy ETV
vector 357 RSUExampleScenario.node[71].veinsmobility speed ETV
vector 358 RSUExampleScenario.node[71].veinsmobility acceleration ETV
vector 359 RSUExampleScenario.node[71].veinsmobility co2emission ETV
vector 360 RSUExampleScenario.node[72].veinsmobility posx ETV
vector 361 RSUExampleScenario.node[72].veinsmobility posy ETV
vector 362 RSUExampleScenario.node[72].veinsmobility speed ETV
vector 363 RSUExampleScenario.node[72].veinsmobility acceleration ETV
vector 364 RSUExampleScenario.node[72].veinsmobility co2emission ETV
vector 365 RSUExampleScenario.node[73].veinsmobility posx ETV
vector 366 RSUExampleScenario.node[73].veinsmobility posy ETV
vector 367 RSUExampleScenario.node[73].veinsmobility speed ETV
vector 368 RSUExampleScenario.node[73].veinsmobility acceleration ETV
vector 369 RSUExampleScenario.node[73].veinsmobility co2emission ETV
vector 370 RSUExampleScenario.node[74].veinsmobility posx ETV
vector 371 RSUExampleScenario.node[74].veinsmobility posy ETV
vector 372 RSUExampleScenario.node[74].veinsmobility speed ETV
vector 373 RSUExampleScenario.node[74].veinsmobility acceleration ETV
vector 374 RSUExampleScenario.node[74].veinsmobility co2emission ETV
vector 375 RSUExampleScenario.node[75].veinsmobility posx ETV
vector 376 RSUExampleScenario.node[75].veinsmobility posy ETV
vector 377 RSUExampleScenario.node[75].veinsmobility speed ETV
vector 378 RSUExampleScenario.node[75].veinsmobility acceleration ETV
vector 379 RSUExampleScenario.node[75].veinsmobility co2emission ETV
vector 380 RSUExampleScenario.node[76].veinsmobility posx ETV
vector 381 RSUExampleScenario.node[76].veinsmobility posy ETV
vector 382 RSUExampleScenario.node[76].veinsmobility speed ETV
vector 383 RSUExampleScenario.node[76].veinsmobility acceleration ETV
vector 384 RSUExampleScenario.node[76].veinsmobility co2emission ETV
vector 385 RSUExampleScenario.node[77].veinsmobility posx ETV
vector 386 RSUExampleScenario.node[77].veinsmobility posy ETV
vector 387 RSUExampleScenario.node[77].veinsmobility speed ETV
vector 388 RSUExampleScenario.node[77].veinsmobility acceleration ETV
vector 389 RSUExampleScenario.node[77].veinsmobility co2emission ETV
vector 390 RSUExampleScenario.node[78].veinsmobility posx ETV
vector 391 RSUExampleScenario.node[78].veinsmobility posy ETV
vector 392 RSUExampleScenario.node[78].veinsmobility speed ETV
279	955064 1332 1227869 1950010 195 236 42 0.973 2.3514959673819 84.29652359239 171.19607325516
278	956396 1452 1227869 1950010 195 236 42 -4.0093682829435 0.093585632268805 -4.0026283812598 16.153527481487
277	957848 1338 1227869 1950010 195 236 42 9.9858403045027 13.995208587446 581.03772656415 8053.4124501592
276	959186 1341 1227869 1950010 195 236 42 1309.7649513651 1699.5916525731 61742.841585828 91305848.666952
275	960527 1337 1227869 1950010 195 236 42 2434.999594477 2460.7046908917 102621.25214545 250743393.72987
vector 393 RSUExampleScenario.node[79].veinsmobility posx ETV
vector 394 RSUExampleScenario.node[79].veinsmobility posy ETV
vector 395 RSUExampleScenario.node[78].veinsmobility acceleration ETV
vector 396 RSUExampleScenario.node[78].veinsmobility co2emission ETV
vector 397 RSUExampleScenario.node[80].veinsmobility posx ETV
vector 398 RSUExampleScenario.node[80].veinsmobility posy ETV
vector 399 RSUExampleScenario.node[79].veinsmobility speed ETV
vector 400 RSUExampleScenario.node[79].veinsmobility acceleration ETV
vector 401 RSUExampleScenario.node[79].veinsmobility co2emission ETV
vector 402 RSUExampleScenario.node[80].veinsmobility speed ETV
vector 403 RSUExampleScenario.node[80].veinsmobility acceleration ETV
vector 404 RSUExampleScenario.node[80].veinsmobility co2emission ETV
vector 405 RSUExampleScenario.node[81].veinsmobility posx ETV
vector 406 RSUExampleScenario.node[81].veinsmobility posy ETV
vector 407 RSUExampleScenario.node[81].veinsmobility speed ETV
vector 408 RSUExampleScenario.node[81].veinsmobility acceleration ETV
vector 409 RSUExampleScenario.node[81].veinsmobility co2emission ETV
vector 410 RSUExampleScenario.node[82].veinsmobility posx ETV
vector 411 RSUExampleScenario.node[82].veinsmobility posy ETV
vector 412 RSUExampleScenario.node[82].veinsmobility speed ETV
vector 413 RSUExampleScenario.node[82].veinsmobility acceleration ETV
vector 414 RSUExampleScenario.node[82].veinsmobility co2emission ETV
vector 415 RSUExampleScenario.node[83].veinsmobility posx ETV
vector 416 RSUExampleScenario.node[83].veinsmobility posy ETV
vector 417 RSUExampleScenario.node[83].veinsmobility speed ETV
vector 418 RSUExampleScenario.node[83].veinsmobility acceleration ETV
vector 419 RSUExampleScenario.node[83].veinsmobility co2emission ETV
vector 420 RSUExampleScenario.node[84].veinsmobility posx ETV
vector 421 RSUExampleScenario.node[84].veinsmobility posy ETV
vector 422 RSUExampleScenario.node[84].veinsmobility speed ETV
vector 423 RSUExampleScenario.node[84].veinsmobility acceleration ETV
vector 424 RSUExampleScenario.node[84].veinsmobility co2emission ETV
vector 425 RSUExampleScenario.node[85].veinsmobility posx ETV
vector 426 RSUExampleScenario.node[85].veinsmobility posy ETV
vector 427 RSUExampleScenario.node[85].veinsmobility speed ETV
vector 428 RSUExampleScenario.node[85].veinsmobility acceleration ETV
vector 429 RSUExampleScenario.node[85].veinsmobility co2emission ETV
vector 430 RSUExampleScenario.node[86].veinsmobility posx ETV
vector 431 RSUExampleScenario.node[86].veinsmobility posy ETV
vector 432 RSUExampleScenario.node[86].veinsmobility speed ETV
vector 433 RSUExampleScenario.node[86].veinsmobility acceleration ETV
vector 434 RSUExampleScenario.node[86].veinsmobility co2emission ETV
vector 435 RSUExampleScenario.node[87].veinsmobility posx ETV
vector 436 RSUExampleScenario.node[87].veinsmobility posy ETV
vector 437 RSUExampleScenario.node[87].veinsmobility speed ETV
vector 438 RSUExampleScenario.node[87].veinsmobility acceleration ETV
vector 439 RSUExampleScenario.node[87].veinsmobility co2emission ETV
vector 440 RSUExampleScenario.node[88].veinsmobility posx ETV
vector 441 RSUExampleScenario.node[88].veinsmobility posy ETV
vector 442 RSUExampleScenario.node[88].veinsmobility speed ETV
vector 443 RSUExampleScenario.node[88].veinsmobility acceleration ETV
vector 444 RSUExampleScenario.node[88].veinsmobility co2emission ETV
vector 445 RSUExampleScenario.node[89].veinsmobility posx ETV
vector 446 RSUExampleScenario.node[89].veinsmobility posy ETV
vector 447 RSUExampleScenario.node[89].veinsmobility speed ETV
vector 448 RSUExampleScenario.node[89].veinsmobility acceleration ETV
vector 449 RSUExampleScenario.node[89].veinsmobility co2emission ETV
vector 450 RSUExampleScenario.node[90].veinsmobility posx ETV
vector 451 RSUExampleScenario.node[90].veinsmobility posy ETV
vector 452 RSUExampleScenario.node[90].veinsmobility speed ETV
vector 453 RSUExampleScenario.node[90].veinsmobility acceleration ETV
vector 454 RSUExampleScenario.node[90].veinsmobility co2emission ETV
vector 455 RSUExampleScenario.node[91].veinsmobility posx ETV
vector 456 RSUExampleScenario.node[91].veinsmobility posy ETV
vector 457 RSUExampleScenario.node[91].veinsmobility speed ETV
vector 458 RSUExampleScenario.node[91].veinsmobility acceleration ETV
vector 459 RSUExampleScenario.node[91].veinsmobility co2emission ETV
vector 460 RSUExampleScenario.node[92].veinsmobility posx ETV
vector 461 RSUExampleScenario.node[92].veinsmobility posy ETV
vector 462 RSUExampleScenario.node[92].veinsmobility speed ETV
vector 463 RSUExampleScenario.node[92].veinsmobility acceleration ETV
vector 464 RSUExampleScenario.node[92].veinsmobility co2emission ETV
vector 465 RSUExampleScenario.node[93].veinsmobility posx ETV
vector 466 RSUExampleScenario.node[93].veinsmobility posy ETV
vector 467 RSUExampleScenario.node[93].veinsmobility speed ETV
vector 468 RSUExampleScenario.node[93].veinsmobility acceleration ETV
vector 469 RSUExampleScenario.node[93].veinsmobility co2emission ETV
vector 470 RSUExampleScenario.node[94].veinsmobility posx ETV
vector 471 RSUExampleScenario.node[94].veinsmobility posy ETV
vector 472 RSUExampleScenario.node[94].veinsmobility speed ETV
vector 473 RSUExampleScenario.node[94].veinsmobility acceleration ETV
vector 474 RSUExampleScenario.node[94].veinsmobility co2emission ETV
vector 475 RSUExampleScenario.node[95].veinsmobility posx ETV
vector 476 RSUExampleScenario.node[95].veinsmobility posy ETV
vector 477 RSUExampleScenario.node[95].veinsmobility speed ETV
vector 478 RSUExampleScenario.node[95].veinsmobility acceleration ETV
vector 479 RSUExampleScenario.node[95].veinsmobility co2emission ETV
vector 480 RSUExampleScenario.node[96].veinsmobility posx ETV
vector 481 RSUExampleScenario.node[96].veinsmobility posy ETV
49	967669 2829 1227869 3128723 195 286 92 0.973 6.5552885646024 193.23822755492 446.32009108204
48	970498 3065 1227869 3128723 195 286 92 -3.8095327307369 2.1271386557701 -3.570761436803 37.369379278802
47	973563 2840 1227869 3128723 195 286 92 6.3654749670749 13.999132708127 1261.9764263091 17420.021684081
46	976403 2845 1227869 3128723 195 286 92 1217.8494480774 1504.1759239314 123618.29877235 166624607.49824
45	979248 2842 1227869 3128723 195 286 92 205.59223150404 1223.4061563757 60228.561116209 47521192.243454
vector 482 RSUExampleScenario.node[96].veinsmobility speed ETV
vector 483 RSUExampleScenario.node[96].veinsmobility acceleration ETV
vector 484 RSUExampleScenario.node[96].veinsmobility co2emission ETV
vector 485 RSUExampleScenario.node[97].veinsmobility posx ETV
vector 486 RSUExampleScenario.node[97].veinsmobility posy ETV
vector 487 RSUExampleScenario.node[97].veinsmobility speed ETV
vector 488 RSUExampleScenario.node[97].veinsmobility acceleration ETV
vector 489 RSUExampleScenario.node[97].veinsmobility co2emission ETV
vector 490 RSUExampleScenario.node[98].veinsmobility posx ETV
vector 491 RSUExampleScenario.node[98].veinsmobility posy ETV
vector 492 RSUExampleScenario.node[98].veinsmobility speed ETV
vector 493 RSUExampleScenario.node[98].veinsmobility acceleration ETV
vector 494 RSUExampleScenario.node[98].veinsmobility co2emission ETV
vector 495 RSUExampleScenario.node[99].veinsmobility posx ETV
vector 496 RSUExampleScenario.node[99].veinsmobility posy ETV
vector 497 RSUExampleScenario.node[99].veinsmobility speed ETV
vector 498 RSUExampleScenario.node[99].veinsmobility acceleration ETV
vector 499 RSUExampleScenario.node[99].veinsmobility co2emission ETV
vector 500 RSUExampleScenario.node[100].veinsmobility posx ETV
vector 501 RSUExampleScenario.node[100].veinsmobility posy ETV
vector 502 RSUExampleScenario.node[100].veinsmobility speed ETV
vector 503 RSUExampleScenario.node[100].veinsmobility acceleration ETV
vector 504 RSUExampleScenario.node[100].veinsmobility co2emission ETV
vector 505 RSUExampleScenario.node[101].veinsmobility posx ETV
vector 506 RSUExampleScenario.node[101].veinsmobility posy ETV
vector 507 RSUExampleScenario.node[101].veinsmobility speed ETV
vector 508 RSUExampleScenario.node[101].veinsmobility acceleration ETV
vector 509 RSUExampleScenario.node[101].veinsmobility co2emission ETV
vector 510 RSUExampleScenario.node[102].veinsmobility posx ETV
vector 511 RSUExampleScenario.node[102].veinsmobility posy ETV
vector 512 RSUExampleScenario.node[102].veinsmobility speed ETV
vector 513 RSUExampleScenario.node[102].veinsmobility acceleration ETV
vector 514 RSUExampleScenario.node[102].veinsmobility co2emission ETV
vector 515 RSUExampleScenario.node[103].veinsmobility posx ETV
vector 516 RSUExampleScenario.node[103].veinsmobility posy ETV
vector 517 RSUExampleScenario.node[103].veinsmobility speed ETV
vector 518 RSUExampleScenario.node[103].veinsmobility acceleration ETV
vector 519 RSUExampleScenario.node[103].veinsmobility co2emission ETV
vector 520 RSUExampleScenario.node[104].veinsmobility posx ETV
vector 521 RSUExampleScenario.node[104].veinsmobility posy ETV
vector 522 RSUExampleScenario.node[104].veinsmobility speed ETV
vector 523 RSUExampleScenario.node[104].veinsmobility acceleration ETV
vector 524 RSUExampleScenario.node[104].veinsmobility co2emission ETV
vector 525 RSUExampleScenario.node[105].veinsmobility posx ETV
vector 526 RSUExampleScenario.node[105].veinsmobility posy ETV
vector 527 RSUExampleScenario.node[105].veinsmobility speed ETV
vector 528 RSUExampleScenario.node[105].veinsmobility acceleration ETV
vector 529 RSUExampleScenario.node[105].veinsmobility co2emission ETV
vector 530 RSUExampleScenario.node[106].veinsmobility posx ETV
vector 531 RSUExampleScenario.node[106].veinsmobility posy ETV
vector 532 RSUExampleScenario.node[106].veinsmobility speed ETV
vector 533 RSUExampleScenario.node[106].veinsmobility acceleration ETV
vector 534 RSUExampleScenario.node[106].veinsmobility co2emission ETV
vector 535 RSUExampleScenario.node[107].veinsmobility posx ETV
vector 536 RSUExampleScenario.node[107].veinsmobility posy ETV
vector 537 RSUExampleScenario.node[107].veinsmobility speed ETV
vector 538 RSUExampleScenario.node[107].veinsmobility acceleration ETV
vector 539 RSUExampleScenario.node[107].veinsmobility co2emission ETV
vector 540 RSUExampleScenario.node[108].veinsmobility posx ETV
vector 541 RSUExampleScenario.node[108].veinsmobility posy ETV
vector 542 RSUExampleScenario.node[108].veinsmobility speed ETV
vector 543 RSUExampleScenario.node[108].veinsmobility acceleration ETV
vector 544 RSUExampleScenario.node[108].veinsmobility co2emission ETV
vector 545 RSUExampleScenario.node[109].veinsmobility posx ETV
vector 546 RSUExampleScenario.node[109].veinsmobility posy ETV
vector 547 RSUExampleScenario.node[109].veinsmobility speed ETV
vector 548 RSUExampleScenario.node[109].veinsmobility acceleration ETV
vector 549 RSUExampleScenario.node[109].veinsmobility co2emission ETV
vector 550 RSUExampleScenario.node[110].veinsmobility posx ETV
vector 551 RSUExampleScenario.node[110].veinsmobility posy ETV
vector 552 RSUExampleScenario.node[110].veinsmobility speed ETV
vector 553 RSUExampleScenario.node[110].veinsmobility acceleration ETV
vector 554 RSUExampleScenario.node[110].veinsmobility co2emission ETV
vector 555 RSUExampleScenario.node[111].veinsmobility posx ETV
vector 556 RSUExampleScenario.node[111].veinsmobility posy ETV
vector 557 RSUExampleScenario.node[111].veinsmobility speed ETV
vector 558 RSUExampleScenario.node[111].veinsmobility acceleration ETV
vector 559 RSUExampleScenario.node[111].veinsmobility co2emission ETV
vector 560 RSUExampleScenario.node[112].veinsmobility posx ETV
vector 561 RSUExampleScenario.node[112].veinsmobility posy ETV
vector 562 RSUExampleScenario.node[112].veinsmobility speed ETV
vector 563 RSUExampleScenario.node[112].veinsmobility acceleration ETV
vector 564 RSUExampleScenario.node[112].veinsmobility co2emission ETV
vector 565 RSUExampleScenario.node[113].veinsmobility posx ETV
vector 566 RSUExampleScenario.node[113].veinsmobility posy ETV
vector 567 RSUExampleScenario.node[113].veinsmobility speed ETV
vector 568 RSUExampleScenario.node[113].veinsmobility acceleration ETV
vector 569 RSUExampleScenario.node[113].veinsmobility co2emission ETV
vector 570 RSUExampleScenario.node[114].veinsmobility posx ETV
vector 571 RSUExampleScenario.node[114].veinsmobility posy ETV
vector 572 RSUExampleScenario.node[114].veinsmobility speed ETV
vector 573 RSUExampleScenario.node[114].veinsmobility acceleration ETV
vector 574 RSUExampleScenario.node[114].veinsmobility co2emission ETV
vector 575 RSUExampleScenario.node[115].veinsmobility posx ETV
vector 576 RSUExampleScenario.node[115].veinsmobility posy ETV
0	988361 4489 1227869 5050536 195 344 150 360.93903489609 1465.9705407408 126640.61692704 124722516.64474
1	992850 4483 1227869 5050536 195 344 150 787.48786990345 1502.4150424181 163650.44998289 185417784.65664
2	997333 4476 1227869 5050536 195 344 150 6.1121230178856 13.999713338374 1982.7446604122 26686.584367811
3	1001809 4804 1227869 5050536 195 344 150 -4.5 2.0836434867117 -0.022641224989117 130.9125974505
4	1006613 4368 1227869 5050536 195 344 150 0.973 8.6850208759322 360.68110544945 1169.5525600956
5	1010981 4483 1227869 5050536 195 344 150 501.69384068635 1476.076117479 135242.63911928 135623501.43572
6	1015464 4481 1227869 5050536 195 344 150 787.72857203241 1431.4712964389 160524.34649156 177425192.66172
7	1019945 4477 1227869 5050536 195 344 150 6.4311583927729 13.999803021229 1984.5736729523 26675.854620738
8	1024422 4800 1227869 5050536 195 344 150 -4.4354029348386 2.2655308602285 0.10107039882336 137.03488474681
9	1029222 4359 1227869 5050536 195 344 150 0.973 8.4355215839175 364.22696648732 1238.2905431403
10	1033581 4630 1227869 5050536 195 344 150 504.8542213497 1489.8457783847 136878.74207369 138964189.26984
11	1038211 4632 1227869 5050536 195 344 150 787.74862480164 1437.1501087667 158230.63587764 171823271.20128
12	1042843 4632 1227869 5050536 195 344 150 6.4252490295726 13.997348184357 1975.4718623958 26448.159707431
13	1047475 4947 1227869 5050536 195 344 150 -4.4694613280266 2.2897281678533 0.10644854912767 138.54119231075
14	1052422 4468 1227869 5050536 195 344 150 0.973 8.7047162254518 369.74380496614 1293.8777552272
15	1056890 4632 1227869 5050536 195 344 150 612.52688561252 1961.2553685299 194731.19318358 271199003.80024
16	1061522 4634 1227869 5050536 195 344 150 1035.1705831001 1356.1900883177 179547.9902572 215866411.60613
17	1066156 4631 1227869 5050536 195 344 150 0.7824868637731 13.999444443993 1895.6873955341 24831.427807459
18	1070787 4938 1227869 5050536 195 344 150 -4.495899147719 2.3092975473567 -0.060549302485305 192.45687696534
19	1075725 4473 1227869 5050536 195 344 150 0.973 8.1227851608744 364.02336990472 1277.0589985815
20	1080198 4635 1227869 5050536 195 344 150 588.72672946635 1527.5993245658 163075.51009764 190024542.66076
21	1084833 4625 1227869 5050536 195 344 150 728.84217945952 1168.2321618963 139708.88521866 133719268.71823
22	1089458 4629 1227869 5050536 195 344 150 6.9051583198391 12.266493707367 1771.557087995 21120.4652951
23	1094087 4975 1227869 5050536 195 344 150 -4.5 2.0052215761598 0.014388313605449 121.75842568078
24	1099062 4537 1227869 5050536 195 344 150 0.973 7.5746777908067 328.03423401532 967.00669305957
25	1103599 4628 1227869 5050536 195 344 150 893.04992341436 1949.1230279881 231527.57594289 369843067.02386
26	1108227 4634 1227869 5050536 195 344 150 1146.2325970121 1369.2850669753 189451.20777302 239937469.12549
27	1112861 4634 1227869 5050536 195 344 150 6.3855529439388 13.996440755201 1640.6054694537 19089.828190298
28	1117495 4931 1227869 5050536 195 344 150 -4.4367373134886 2.4480609802809 2.0302226546836 172.0674382635
29	1122426 4448 1227869 5050536 195 344 150 0.973 8.6109964097704 355.36797829072 1281.6796338996
30	1126874 4633 1227869 5050536 195 344 150 261.52378558787 1738.7500482235 151036.20290621 184643545.86124
31	1131507 4631 1227869 5050536 195 344 150 1141.6273030518 1504.4651056528 192597.86565253 248688079.76458
32	1136138 4641 1227869 5050536 195 344 150 6.6197592184898 13.995214566947 1945.7449535937 25557.687947605
33	1140779 4966 1227869 5050536 195 344 150 -4.4843842595553 2.0750523514696 1.3288034902459 131.06650714984
34	1145745 4535 1227869 5050536 195 344 150 0.973 8.3930582125848 352.60881315615 1127.9979386816
35	1150280 4627 1227869 5050536 195 344 150 1695.9604226173 1916.8906164746 271240.69496295 491116578.80809
36	1154907 4630 1227869 5050536 195 344 150 1157.0020817965 1579.1637870409 208470.72430343 291699891.48306
37	1159537 4631 1227869 5050536 195 344 150 0.17017657343011 10.61080815055 955.09595046797 6378.2452650209
38	1164168 5007 1227869 5050536 195 344 150 -2.3725772191311 1.9224697198835 -6.1638652933533 25.467204303449
39	1169175 4567 1227869 5050536 195 344 150 0.973 6.1368723003436 223.69848384647 372.81978156842
40	1173742 4629 1227869 5050536 195 344 150 861.96629721636 1870.559119376 202898.0198496 286590837.52032
41	1178371 4638 1227869 5050536 195 344 150 729.03741773497 1211.5261425544 146900.50027352 148709824.34331
42	1183009 4531 1227869 5050536 195 344 150 0 13.996010377556 1769.3149668619 23008.160134298
43	1187540 4828 1227869 5050536 195 344 150 -4.499500350615 2.2064426019415 5.301497315969 193.55692593189
44	1192368 4431 1227869 5050536 195 344 150 0.973 8.7672901445263 372.78094368821 1331.6569788028
50	1196799 4630 1227869 5050536 195 344 150 941.87166334374 1895.8649799225 214719.37719835 322506814.99593
51	1201429 4636 1227869 5050536 195 344 150 735.64448973536 1403.9345862092 174183.25753086 208509809.54987
52	1206065 4637 1227869 5050536 195 344 150 6.4942749100787 13.999691771043 1743.3977687866 21181.853724502
53	1210702 4959 1227869 5050536 195 344 150 -4.4322987229138 2.3557363892742 4.5948457451668 93.85450674182
54	1215661 4528 1227869 5050536 195 344 150 0.973 9.1422931861012 328.92341333441 989.27210971817
55	1220189 4631 1227869 5050536 195 344 150 309.216452113 1629.2607113426 154588.39365628 188791482.78011
56	1224820 4632 1227869 5050536 195 344 150 1163.2314572502 1504.5791901788 192615.34500929 248466945.30788
57	1229452 4603 1227869 5050536 195 344 150 0 13.999938950385 1799.8717577346 22985.057447225
58	1234055 4942 1227869 5050536 195 344 150 -4.5 2.1134276511357 5.2052201744331 119.45654510298
59	1238997 4532 1227869 5050536 195 344 150 0.973 8.1113261067702 335.25577610368 1002.5547458702
[...]
388	2720693 3735 1907473 5050536 234 344 111 -4.5 2.1413023836305 9.8272800658044 151.92767803837
389	2724428 3443 1907473 5050536 234 344 111 0.973 9.0101762756385 300.72034978396 1203.4923198663
390	2727871 3507 1926762 5050536 235 344 110 1959.5331572948 2414.8410998913 232648.40004688 494060218.05833
391	2731378 3502 1926762 5050536 235 344 110 1485.4577382216 1907.0536187096 186134.75549388 316453670.27686
392	2734880 3484 1950010 5050536 236 344 109 0.044538856092566 12.434389171814 1091.7698755277 12197.743628401
393	2738364 3445 1970316 5050536 237 344 108 1465.7776319929 2230.0581884979 202065.57941254 383842126.10414
394	2741809 3440 1970316 5050536 237 344 108 984.24002840277 1305.5058077844 119097.82969221 132169489.44419
395	2745249 3637 1970316 5050536 237 344 108 -3.1027518269602 2.2922777914884 6.8441989258502 97.148540934532
396	2748886 3252 1970316 5050536 237 344 108 0.973 7.2030300517294 238.79024455356 736.78327669849
397	2752138 3419 1993157 5050536 238 344 107 2334.4332918485 2414.866920549 253955.55905804 602755929.27993
398	2755557 3372 1993157 5050536 238 344 107 1578.4542808058 1696.3761231545 180047.56167165 303056545.99307
399	2758929 3412 1993157 5050536 238 344 107 7.1007226828421 13.995091586192 1156.9911468756 13132.93914738
400	2762341 3599 2012599 5050536 239 344 106 -2.5599606517662 2.014547487651 4.8692246378358 49.792088736606
401	2765940 3304 2012599 5050536 239 344 106 0.973 8.5520437967107 226.27452377593 681.47848633571
402	2769244 2449 2012599 5050536 239 344 106 0 13.990223978681 187.69151079349 2175.9327390232
403	2771693 2484 2034003 5050536 240 344 105 -4.4799266055591 2.1713802092279 -4.0681867820779 82.679814689396
404	2774177 2527 2034003 5050536 240 344 105 0.973 8.5633622698202 139.7117006518 334.05372798636
405	2776704 3320 2053393 5050536 241 344 104 2221.9616146156 2438.3721348977 245744.98826746 581031009.40518
406	2780024 3316 2053393 5050536 241 344 104 1292.0258578267 1700.9690662716 162185.61707829 254877401.44161
407	2783340 3223 2074010 5050536 242 344 103 0 13.971705370604 754.85467514915 7798.9039861786
408	2786563 3393 2094781 5050536 243 344 102 -4.4741224649256 2.3158561931878 3.4667264113682 125.76731320495
409	2789956 3020 2094781 5050536 243 344 102 0.973 8.1233111882194 210.16391643038 705.14794507012
410	2792976 3222 2115064 5050536 244 344 101 1959.5166313722 2414.8917473488 214597.10125412 457802116.04974
411	2796198 3212 2115064 5050536 244 344 101 1486.4656854747 1907.6657743165 171126.51595554 291364416.4544
412	2799410 3187 2136006 5050536 245 344 100 3.0843563535166 12.768945979657 1070.458280037 12120.770474809
413	2802597 3329 2157186 5050536 246 344 99 -3.7792694760041 2.1218540103198 8.8506895118301 91.221587040813
414	2805926 2995 2157186 5050536 246 344 99 0.973 7.4380034447231 230.10109577685 746.14818682458
415	2808921 3124 2178767 5050536 247 344 98 2228.3749980824 2438.4219871081 231681.33210956 548035198.67684
416	2812045 3131 2178767 5050536 247 344 98 1302.7034715246 1700.9974217517 152684.82825183 239632891.06172
417	2815176 3126 2200113 5050536 248 344 97 2.5417645496201e-05 13.998869980848 743.71911042864 7639.0658668014
418	2818302 3255 2221467 5050536 249 344 96 -3.034912139629 2.1876840640372 3.3013317013689 104.69712747686
419	2821557 2832 2221467 5050536 249 344 96 0.973 8.3441864024629 198.46881832052 676.0383303756
420	2824389 3030 2243228 5050536 250 344 95 2232.3658608051 2438.4433111892 224826.43118967 532358956.47049
421	2827419 3028 2243228 5050536 250 344 95 1315.3808912272 1701.1240653656 148355.80272314 233264418.74022
422	2830447 3022 2264423 5050536 251 344 94 0.00068790967375521 13.996287249941 738.60840668846 7563.8052174619
423	2833469 3143 2286586 5050536 252 344 93 -2.6579792359356 2.1278295253729 7.229968972405 94.717750228186
424	2836612 2723 2286586 5050536 252 344 93 0.973 8.1051107070154 200.41799186075 725.37933188925
425	2839335 2937 2308344 5050536 253 344 92 2334.2037066867 2459.978331355 221550.98422047 533665827.32525
426	2842272 2930 2308344 5050536 253 344 92 1305.077762167 1701.005018739 143827.67722357 226339776.73712
427	2845202 2919 2330391 5050536 254 344 91 0.01121234671971 13.998151610512 883.77377628144 10866.104345523
428	2848121 3028 2352715 5050536 255 344 90 -3.6203818760649 2.037282346976 4.9558367402905 92.418869018049
429	2851149 2654 2352715 5050536 255 344 90 0.973 7.9270634519437 205.62866866677 734.47695396467
430	2853803 2831 2374804 5050536 256 344 89 1959.8111798388 2414.910087102 191974.29209131 415491031.06717
431	2856634 2834 2374804 5050536 256 344 89 1578.438430273 2047.6541224355 162545.46174537 298529047.86815
432	2859468 2808 2397624 5050536 257 344 88 4.045894048204 13.559102280533 1140.4966892269 15044.595353399
433	2862276 2965 2420249 5050536 258 344 87 -3.7728594919653 2.1840594130917 9.4627321564592 57.310179730219
434	2865241 2755 2420249 5050536 258 344 87 0.973 7.6798037677372 209.68126849036 670.30011916362
435	2867996 2740 2442110 5050536 259 344 86 1971.1827201999 2414.8811088963 185691.27155873 402271017.11521
436	2870736 2744 2442110 5050536 259 344 86 1578.4490709184 2048.4854565924 157227.44833091 289049541.82073
437	2873480 2714 2465012 5050536 260 344 85 4.2115614570455 13.995984386227 1121.8247710467 15091.39465547
438	2876194 2870 2487623 5050536 261 344 84 -3.368933329199 2.0652488381346 9.2526903274136 51.403726976297
439	2879064 2648 2487623 5050536 261 344 84 0.973 8.0732184122708 204.93689872917 683.87778030907
440	2881712 2650 2510613 5050536 262 344 83 2211.8742417931 2450.4173252962 198332.29847812 474197832.93127
441	2884362 2643 2510613 5050536 262 344 83 1578.4623680636 2120.8679907881 152891.26179346 284699037.90011
442	2887005 2622 2533745 5050536 263 344 82 0.77130030328147 13.982953556366 884.01240564561 10778.403371967
443	2889627 2748 2557017 5050536 264 344 81 -2.9077684265653 2.1250322352326 9.7739986809003 53.035171714977
444	2892375 2487 2557017 5050536 264 344 81 0.973 7.4747887033421 182.67636818901 545.57798205366
445	2894862 2553 2580565 5050536 265 344 80 2287.6516479991 2439.0041499264 190945.63776494 455905593.53922
446	2897415 2550 2580565 5050536 265 344 80 1375.4355792357 1744.9920462808 127218.45984819 203277770.28093
447	2899965 2522 2604153 5050536 266 344 79 1.2637746919532 13.999660763461 749.72528595853 8152.9278897277
448	2902487 2629 2631143 5050536 267 344 78 -3.8364491804871 2.1368169163447 4.6019074935052 74.663255642082
449	2905116 2329 2631143 5050536 267 344 78 0.973 9.0770213662605 172.51723012014 613.59515409404
450	2907445 2461 2654783 5050536 268 344 77 1960.8158193399 2414.8613708954 165243.77958946 356232172.06058
451	2909906 2451 2654783 5050536 268 344 77 1578.4563186094 1906.4821943948 133401.6194921 231922071.39247
452	2912357 2390 2679251 5050536 269 344 76 0 12.82776718361 891.95287112964 11035.206860303
453	2914747 2521 2703384 5050536 270 344 75 -4.5 2.0148974302178 -4.0620906906307 100.22549339216
454	2917268 2331 2703384 5050536 270 344 75 0.973 7.8335373705572 171.40061320835 537.37862217209
455	2919599 2358 2727803 5050536 271 344 74 2296.5886417222 2438.7946535264 176943.4933059 423225967.97841
456	2921957 2358 2727803 5050536 271 344 74 1385.8977806084 1747.923637948 117660.39375214 187939194.44374
457	2924315 2328 2752935 5050536 272 344 73 4.1701320816091 13.993136714362 736.87420711876 8139.8709816477
458	2926643 2430 2777855 5050536 273 344 72 -2.7403891773761 2.0443490229617 4.3669051750693 64.043052448676
459	2929073 2165 2777855 5050536 273 344 72 0.973 8.7605381950852 164.55733324903 595.65346028772
460	2931238 2259 2802883 5050536 274 344 71 1960.8652124705 2414.855217316 153023.61622776 331377477.66332
461	2933497 2260 2802883 5050536 274 344 71 1578.4585781712 1907.34279502 123910.23751372 216933454.46273
462	2935757 2234 2828666 5050536 275 344 70 4.094938247549 12.550600683791 839.6024560723 10240.425074431
463	2937991 2359 2854755 5050536 276 344 69 -4.3474372754943 2.0588917807699 8.4016221735682 42.940999973472
464	2940350 2181 2854755 5050536 276 344 69 0.973 7.7170371244755 158.36274318691 483.77898242973
465	2942531 2169 2881298 5050536 277 344 68 2334.5307619425 2497.520619771 165078.67589096 400867194.05494
466	2944700 2171 2881298 5050536 277 344 68 1128.1297429018 1700.9637349732 102146.21977643 155608711.5986
467	2946871 2131 2908308 5050536 278 344 67 3.7697028424171 13.999266545614 831.0220274198 10773.95240337
468	2949002 2236 2934733 5050536 279 344 66 -1.4169350530612 2.2434555488941 10.159304102233 42.869143929295
469	2951238 2016 2934733 5050536 279 344 66 0.973 8.8952213784475 165.97908925501 617.26028243694
470	2953254 1943 2961185 5010954 280 343 64 2334.3998431496 2436.3719040083 153594.27557764 368652037.35813
471	2955197 2039 2961185 5010954 280 343 64 1578.4655931443 1914.7379486021 110735.7132597 192180512.02043
472	2957236 2004 2988183 5010954 281 343 63 3.931839338967 13.994066597519 797.51164194404 10444.735274637
473	2959240 2097 3016855 5010954 282 343 62 -4.4848533852308 2.2265943916305 9.9559660929722 94.000847438828
474	2961337 1897 3016855 5010954 282 343 62 0.973 8.366131664533 178.26855283829 782.33404170896
475	2963234 1852 3044075 5010954 283 343 61 2334.3627743733 2438.2107455948 146309.94331116 350962529.24341
476	2965086 1945 3044075 5010954 283 343 61 1578.4572100537 1916.3705064403 106097.25704835 185067300.45081
477	2967031 1913 3072466 5010954 284 343 60 4.0837312415815 13.991838158809 761.87414739499 10012.027776598
478	2968944 1993 3100634 5010954 285 343 59 -4.4287494184761 2.3604937388445 9.8457121512001 75.004896890471
479	2970937 1819 3100634 5010954 285 343 59 0.973 8.3769857386366 164.94665547077 673.76311750447
480	2972756 1753 3128723 5010954 286 343 58 2334.4127580801 2435.9014031084 139012.46082448 333211161.17422
481	2974509 1849 3128723 5010954 286 343 58 1578.4481535358 1916.1569099622 100837.79652397 175849456.65724
482	2976358 1817 3157897 5010954 287 343 57 4.1212246177168 13.996904861035 722.2860978439 9481.5587503944
483	2978175 1871 3186454 5010954 288 343 56 -3.79 2.1523007300706 9.5835504022814 80.771021654686
484	2980046 1725 3186454 5010954 288 343 56 0.973 8.8620520971074 160.99181888905 705.16079054116
485	2981771 1727 3213833 5010954 289 343 55 2334.3336694984 2414.8612670115 130723.37482066 310714951.22191
486	2983498 1758 3213833 5010954 289 343 55 1578.4563567545 1697.5008979524 92120.487192909 154380244.31959
487	2985256 1266 3242180 5010954 290 343 54 0 13.947456440267 196.85457174474 2283.6007291224
488	2986522 1273 3270925 5010954 291 343 53 -4.4870358222091 2.1769989738544 3.9748677401341 92.53748537058
489	2987795 1325 3270925 5010954 291 343 53 0.973 8.4745483658077 97.659902751309 344.43183284678
490	2989120 1661 3300617 5010954 292 343 52 2334.349180219 2414.8791775788 123395.52063376 292829827.54095
491	2990781 1661 3300617 5010954 292 343 52 1578.4497800879 1696.3533312902 86998.931652495 145637356.3494
492	2992442 1409 3329665 5010954 293 343 51 0 13.99282244782 179.82874027981 2029.3480984971
493	2993851 1428 3359996 5010954 294 343 50 -3.1959482843875 2.1114067314775 -1.0081460689536 62.532337461757
494	2995279 1330 3359996 5010954 294 343 50 0.973 7.9335713066063 87.247862193747 292.19435979333
495	2996609 1564 3389258 5010954 295 343 49 2030.6269497558 2414.8793049818 109328.59686551 244642389.32734
496	2998173 1564 3389258 5010954 295 343 49 1578.4497333067 1907.4631954264 85511.659164961 149805388.85359
497	2999737 1527 3419096 5010954 296 343 48 4.155077549549 12.202033812852 550.69622450802 6464.6894740545
498	3001264 1597 3450549 5010954 297 343 47 -4.1976432567402 2.0734752115444 8.0182132919413 41.943554543949
499	3002861 1482 3450549 5010954 297 343 47 0.973 7.5842073914846 113.98477294043 391.5234301759
500	3004343 1465 3481183 5010954 298 343 46 2334.5363049891 2414.890907616 109015.42512141 258369838.69331
501	3005808 1468 3481183 5010954 298 343 46 1578.4454728793 1695.3389992323 76791.732775201 128273983.68964
502	3007276 1287 3511492 5010954 299 343 45 0 13.971467693925 172.93087939939 1940.3137362902
503	3008563 1301 3542220 5010954 300 343 44 -3.0821174470533 2.0357521025394 -1.7188046011587 53.855327710598
504	3009864 1196 3542220 5010954 300 343 44 0.973 8.7286827842133 79.304948169064 278.51140215534
505	3011060 1373 3572793 5010954 301 343 43 2334.7569068014 2414.8773090189 101767.51935317 240867110.87619
506	3012433 1373 3572793 5010954 301 343 43 1578.4504662137 1694.3859638106 71678.48375457 119558571.71236
507	3013806 1249 3604571 5010954 302 343 42 0 13.335061913959 165.69146873773 1793.5288053889
508	3015055 1273 3635796 5010954 303 343 41 -2.6334981665128 2.2569523500046 -2.452625063758 45.193645415719
509	3016328 1127 3635796 5010954 303 343 41 0.973 8.5716353944266 72.421648151884 242.81626936238
510	3017455 1276 3667555 5010954 304 343 40 2094.1238069782 2414.8668676282 90698.50199549 206059633.87747
511	3018731 1274 3667555 5010954 304 343 40 1578.4543002378 1876.6205750452 68546.304576925 117813162.21761
512	3020005 1244 3698112 5010954 305 343 39 3.7901932430446 12.504579483396 462.15280948434 5613.3725151693
513	3021249 1296 3729347 5010954 306 343 38 -0.071928739002907 2.1194612150057 8.7143862403519 16.232927460688
514	3022545 1212 3729347 5010954 306 343 38 1.6702644118827 6.9588463662352 89.721366207285 274.79596318441
515	3023757 1181 3761186 5010954 307 343 37 2106.9325517514 2414.8557075943 84041.507951305 191242958.45388
516	3024938 1178 3761186 5010954 307 343 37 1578.4583981438 1864.3683327604 63265.706032312 108479452.761
517	3026116 1148 3792939 5010954 308 343 36 4.2938348096817 13.994914386277 444.37116996948 5636.3342778515
518	3027264 1191 3824113 5010954 309 343 35 -0.2879711173904 1.9554290025448 8.1538161294156 18.833636482811
519	3028455 1108 3824113 5010954 309 343 35 0.973 8.4215667478382 85.423513680942 312.10896691483
520	3029563 1086 3854996 5010954 310 343 34 2161.5569541089 2414.8594539574 78180.230585881 179986045.4957
521	3030649 1087 3854996 5010954 310 343 34 1578.4570224993 1812.1181222554 57246.356896373 96570183.544947
522	3031736 1050 3885802 5010954 311 343 33 3.800789288725 11.804076732523 367.68142033692 4201.8245766644
523	3032786 1089 3917987 5010954 312 343 32 -0.086975003872068 2.0417364871409 7.9427994725411 15.970666365346
524	3033875 1019 3917987 5010954 312 343 32 1.5768726806304 7.3585817011839 74.358586420167 235.06694147754
525	3034894 984 3949615 5010954 313 343 31 2173.8586752367 2414.8682344581 71418.881278049 164722596.62483
526	3035878 991 3949615 5010954 313 343 31 1578.4537983453 1800.3567266297 52063.937093913 87596821.597961
527	3036869 953 3981496 5010954 314 343 30 4.0607112535425 13.981158568501 350.94110453215 4248.9609463695
528	3037822 981 4012954 5010954 315 343 29 -0.42579491693876 2.0498556446028 7.6915393134827 18.768217516975
529	3038803 886 4012954 5010954 315 343 29 0.973 8.1289040404822 71.157342619395 273.717735724
530	3039689 895 4044775 5010954 316 343 28 2187.8492035159 2414.8698360585 64806.130143061 150144631.79424
531	3040584 893 4044775 5010954 316 343 28 1578.4532102458 1786.9794676779 46750.528576558 78184223.900392
532	3041477 864 4077494 5010954 317 343 27 3.8987765728693 13.610012323502 332.46241227094 4262.8494551909
533	3042341 880 4113683 5010954 318 343 26 -0.39534412387412 2.0207913212059 8.4149435279619 18.508857461476
534	3043221 819 4113683 5010954 318 343 26 0.973 7.8409182133372 68.791489699807 268.05114972289
535	3044040 798 4145331 5010954 319 343 25 2215.4278692675 2414.8816862587 58199.98672049 135592973.99041
536	3044838 796 4145331 5010954 319 343 25 1578.448858914 1760.5934373373 41430.16907275 68744721.969696
537	3045634 768 4180824 5010954 320 343 24 4.1195743788004 13.507740484809 295.66340508535 3795.566872356
538	3046402 775 4212890 5010954 321 343 23 -0.08874064523261 2.0659134265617 9.3644331702736 17.562201734641
539	3047177 734 4212890 5010954 321 343 23 1.6922834960544 7.4264572625779 66.157965659051 261.80762584686
540	3047911 704 4246593 5010954 322 343 22 2334.5083574157 2414.8482292013 52148.398319968 123626504.69077
541	3048615 702 4246593 5010954 322 343 22 1578.4611441707 1691.7961307848 36087.652361698 59239681.74104
542	3049317 672 4279682 5010954 323 343 21 0.33120884641882 13.973502259934 159.13121407189 1783.6051868996
543	3049989 659 4313125 5010954 324 343 20 -3.2374485611136 2.011424466637 -2.7402389859021 50.534428671855
544	3050648 570 4313125 5010954 324 343 20 0.973 7.7161739263031 52.779599021962 234.10252614925
545	3051218 607 4346214 5010954 325 343 19 2334.4240970488 2414.8818840446 45053.163422291 106846123.01542
546	3051825 607 4346214 5010954 325 343 19 1578.4487862876 1687.5639927937 31001.012941151 50614919.694391
547	3052432 576 4380416 5010954 326 343 18 1.2672372880634 13.997309782277 153.12897654591 1699.3953979522
548	3053008 566 4415488 5010954 327 343 17 -2.6049412497667 2.087056842281 -2.6935917140566 46.579447579824
549	3053574 474 4415488 5010954 327 343 17 0.973 8.9221738384496 48.749510427253 250.61751207562
550	3054048 510 4449754 5010954 328 343 16 2334.5059280347 2414.8450145429 37986.414224592 90199822.743287
551	3054558 512 4449754 5010954 328 343 16 1578.4623245765 1679.7748604445 25939.050011606 42073481.382876
552	3055070 480 4484548 5010954 329 343 15 3.1701122638133 13.978530618801 144.97751723396 1623.4587658813
553	3055550 461 4520641 5010954 330 343 14 -2.5367284972756 2.0115869603679 -0.88507631521446 43.698056637396
554	3056011 394 4520641 5010954 330 343 14 0.973 8.7354386440443 45.472220825526 244.14465013225
555	3056405 414 4555531 5010954 331 343 13 2334.710448247 2414.8560355731 30964.911698396 73765872.08303
556	3056819 415 4555531 5010954 331 343 13 1578.4582777116 1660.151404961 20910.712161834 33645353.292261
557	3057234 383 4592146 5010954 332 343 12 4.1734317055849 13.963062683172 127.66766274504 1481.373157836
558	3057617 356 4628776 5010954 333 343 11 -2.3761008583081 1.9820841263793 4.1768833185315 30.034745982
559	3057973 322 4628776 5010954 333 343 11 0.973 8.2918041434592 41.129323568083 225.09610553883
560	3058295 319 4665429 5010954 334 343 10 2359.1948309651 2414.8609309468 23941.427953587 57322736.074581
561	3058614 318 4665429 5010954 334 343 10 1578.4564801566 1630.1375104319 15959.595638239 25474041.765113
562	3058932 288 4702248 5010954 335 343 9 4.0815319345576 13.986418211386 95.973722261313 1139.5380994392
563	3059220 262 4739790 5010954 336 343 8 -0.0064085212303322 2.1063891518582 9.8984777555977 19.525242644111
564	3059482 255 4739790 5010954 336 343 8 2.0152075381006 9.1137953493635 38.530995551745 234.85841120023
565	3059737 224 4778444 5010954 337 343 7 2388.2121942582 2414.8792685461 16835.90012622 40493124.928667
566	3059961 224 4778444 5010954 337 343 7 1578.4497466851 1600.7469190042 11097.611335891 17594294.439616
567	3060185 190 4816685 5010954 338 343 6 3.796890425402 13.318139087686 53.192224447058 537.5211313218
568	3060375 160 4855059 5010954 339 343 5 1.3075196305743 2.1954822717863 9.5212486622843 18.622172292858
569	3060535 160 4855059 5010954 339 343 5 4.5895815701543 7.3999948526235 30.353158334716 189.30244133227
570	3060695 128 4893747 5010954 340 343 4 2407.1867292559 2414.8744365546 9648.8476155675 23275104.597586
571	3060823 128 4893747 5010954 340 343 4 1578.4515209673 1581.5283290856 6317.9706783816 9979194.6872881
572	3060951 96 4932487 5010954 341 343 3 4.0378543063235 7.9599777498357 18.09655322665 116.85991309237
573	3061047 64 4971990 5010954 342 343 2 1.8612565793446 2.0608668641676 3.9221234435122 7.7114482859777
574	3061111 64 4971990 5010954 342 343 2 4.4542025971242 5.1111311850974 9.5653337822215 45.963582767503
575	3061175 32 5010954 5010954 343 343 1 2414.8524763706 2414.8524763706 2414.8524763706 5831512.4826334
576	3061207 31 5010954 5010954 343 343 1 1578.459584632 1578.459584632 1578.459584632 2491534.6603165

